
---------- Begin Simulation Statistics ----------
simSeconds                                   0.005246                       # Number of seconds simulated (Second)
simTicks                                   5245863001                       # Number of ticks simulated (Tick)
finalTick                                  5245863001                       # Number of ticks from beginning of simulation (restored from checkpoints and never reset) (Tick)
simFreq                                  1000000000000                       # The number of ticks per simulated second ((Tick/Second))
hostSeconds                                    101.28                       # Real time elapsed on the host (Second)
hostTickRate                                 51794553                       # The number of ticks simulated per host second (ticks/s) ((Tick/Second))
hostMemory                                    5096856                       # Number of bytes of host memory used (Byte)
system.caches.m_outstandReqHistSeqr::bucket_size            1                       (Unspecified)
system.caches.m_outstandReqHistSeqr::max_bucket            9                       (Unspecified)
system.caches.m_outstandReqHistSeqr::samples        50471                       (Unspecified)
system.caches.m_outstandReqHistSeqr::mean            1                       (Unspecified)
system.caches.m_outstandReqHistSeqr::gmean            1                       (Unspecified)
system.caches.m_outstandReqHistSeqr      |           0      0.00%      0.00% |       50471    100.00%    100.00% |           0      0.00%    100.00% |           0      0.00%    100.00% |           0      0.00%    100.00% |           0      0.00%    100.00% |           0      0.00%    100.00% |           0      0.00%    100.00% |           0      0.00%    100.00% |           0      0.00%    100.00% (Unspecified)
system.caches.m_outstandReqHistSeqr::total        50471                       (Unspecified)
system.caches.m_latencyHistSeqr::bucket_size          128                       (Unspecified)
system.caches.m_latencyHistSeqr::max_bucket         1279                       (Unspecified)
system.caches.m_latencyHistSeqr::samples        50468                       (Unspecified)
system.caches.m_latencyHistSeqr::mean      414.761156                       (Unspecified)
system.caches.m_latencyHistSeqr::gmean     159.687109                       (Unspecified)
system.caches.m_latencyHistSeqr::stdev     256.879924                       (Unspecified)
system.caches.m_latencyHistSeqr          |       12194     24.16%     24.16% |           1      0.00%     24.16% |           1      0.00%     24.17% |       26975     53.45%     77.62% |        8588     17.02%     94.63% |           0      0.00%     94.63% |           0      0.00%     94.63% |        2111      4.18%     98.82% |         598      1.18%    100.00% |           0      0.00%    100.00% (Unspecified)
system.caches.m_latencyHistSeqr::total          50468                       (Unspecified)
system.caches.m_hitLatencyHistSeqr::bucket_size            1                       (Unspecified)
system.caches.m_hitLatencyHistSeqr::max_bucket            9                       (Unspecified)
system.caches.m_hitLatencyHistSeqr::samples         6262                       (Unspecified)
system.caches.m_hitLatencyHistSeqr::mean            1                       (Unspecified)
system.caches.m_hitLatencyHistSeqr::gmean            1                       (Unspecified)
system.caches.m_hitLatencyHistSeqr       |           0      0.00%      0.00% |        6262    100.00%    100.00% |           0      0.00%    100.00% |           0      0.00%    100.00% |           0      0.00%    100.00% |           0      0.00%    100.00% |           0      0.00%    100.00% |           0      0.00%    100.00% |           0      0.00%    100.00% |           0      0.00%    100.00% (Unspecified)
system.caches.m_hitLatencyHistSeqr::total         6262                       (Unspecified)
system.caches.m_missLatencyHistSeqr::bucket_size          128                       (Unspecified)
system.caches.m_missLatencyHistSeqr::max_bucket         1279                       (Unspecified)
system.caches.m_missLatencyHistSeqr::samples        44206                       (Unspecified)
system.caches.m_missLatencyHistSeqr::mean   473.372483                       (Unspecified)
system.caches.m_missLatencyHistSeqr::gmean   327.622715                       (Unspecified)
system.caches.m_missLatencyHistSeqr::stdev   218.284060                       (Unspecified)
system.caches.m_missLatencyHistSeqr      |        5932     13.42%     13.42% |           1      0.00%     13.42% |           1      0.00%     13.42% |       26975     61.02%     74.44% |        8588     19.43%     93.87% |           0      0.00%     93.87% |           0      0.00%     93.87% |        2111      4.78%     98.65% |         598      1.35%    100.00% |           0      0.00%    100.00% (Unspecified)
system.caches.m_missLatencyHistSeqr::total        44206                       (Unspecified)
system.caches.L0Cache_Controller.Load    |        1249     24.77%     24.77% |        1258     24.95%     49.72% |        1259     24.97%     74.69% |        1276     25.31%    100.00% (Unspecified)
system.caches.L0Cache_Controller.Load::total         5042                       (Unspecified)
system.caches.L0Cache_Controller.Ifetch  |        1253     25.27%     25.27% |        1253     25.27%     50.54% |        1241     25.03%     75.57% |        1211     24.43%    100.00% (Unspecified)
system.caches.L0Cache_Controller.Ifetch::total         4958                       (Unspecified)
system.caches.L0Cache_Controller.Store   |       10077     24.90%     24.90% |       10099     24.95%     49.85% |       10202     25.21%     75.06% |       10093     24.94%    100.00% (Unspecified)
system.caches.L0Cache_Controller.Store::total        40471                       (Unspecified)
system.caches.L0Cache_Controller.Replacement |        5368     24.67%     24.67% |        5372     24.69%     49.36% |        5461     25.10%     74.46% |        5558     25.54%    100.00% (Unspecified)
system.caches.L0Cache_Controller.Replacement::total        21759                       (Unspecified)
system.caches.L0Cache_Controller.Inv     |        5684     25.28%     25.28% |        5639     25.08%     50.36% |        5651     25.13%     75.49% |        5511     24.51%    100.00% (Unspecified)
system.caches.L0Cache_Controller.Inv::total        22485                       (Unspecified)
system.caches.L0Cache_Controller.Data    |        8869     24.94%     24.94% |        8815     24.78%     49.72% |        8951     25.17%     74.88% |        8933     25.12%    100.00% (Unspecified)
system.caches.L0Cache_Controller.Data::total        35568                       (Unspecified)
system.caches.L0Cache_Controller.ExData  |        2175     25.18%     25.18% |        2187     25.32%     50.50% |        2146     24.84%     75.34% |        2130     24.66%    100.00% (Unspecified)
system.caches.L0Cache_Controller.ExData::total         8638                       (Unspecified)
system.caches.L0Cache_Controller.I.Load  |        1075     24.89%     24.89% |        1077     24.94%     49.83% |        1080     25.01%     74.83% |        1087     25.17%    100.00% (Unspecified)
system.caches.L0Cache_Controller.I.Load::total         4319                       (Unspecified)
system.caches.L0Cache_Controller.I.Ifetch |        1242     25.37%     25.37% |        1236     25.25%     50.62% |        1221     24.94%     75.57% |        1196     24.43%    100.00% (Unspecified)
system.caches.L0Cache_Controller.I.Ifetch::total         4895                       (Unspecified)
system.caches.L0Cache_Controller.I.Store |        8716     24.93%     24.93% |        8682     24.83%     49.76% |        8789     25.14%     74.90% |        8774     25.10%    100.00% (Unspecified)
system.caches.L0Cache_Controller.I.Store::total        34961                       (Unspecified)
system.caches.L0Cache_Controller.I.Inv   |          35     26.12%     26.12% |          30     22.39%     48.51% |          37     27.61%     76.12% |          32     23.88%    100.00% (Unspecified)
system.caches.L0Cache_Controller.I.Inv::total          134                       (Unspecified)
system.caches.L0Cache_Controller.IS_D.Data |         142     24.65%     24.65% |         126     21.88%     46.53% |         155     26.91%     73.44% |         153     26.56%    100.00% (Unspecified)
system.caches.L0Cache_Controller.IS_D.Data::total          576                       (Unspecified)
system.caches.L0Cache_Controller.IS_D.ExData |        2175     25.18%     25.18% |        2187     25.32%     50.50% |        2146     24.84%     75.34% |        2130     24.66%    100.00% (Unspecified)
system.caches.L0Cache_Controller.IS_D.ExData::total         8638                       (Unspecified)
system.caches.L0Cache_Controller.IM_D.Data |        8727     24.94%     24.94% |        8689     24.83%     49.77% |        8796     25.14%     74.91% |        8780     25.09%    100.00% (Unspecified)
system.caches.L0Cache_Controller.IM_D.Data::total        34992                       (Unspecified)
system.caches.L0Cache_Controller.S.Load  |           0      0.00%      0.00% |           3     60.00%     60.00% |           2     40.00%    100.00% |           0      0.00%    100.00% (Unspecified)
system.caches.L0Cache_Controller.S.Load::total            5                       (Unspecified)
system.caches.L0Cache_Controller.S.Ifetch |           1    100.00%    100.00% |           0      0.00%    100.00% |           0      0.00%    100.00% |           0      0.00%    100.00% (Unspecified)
system.caches.L0Cache_Controller.S.Ifetch::total            1                       (Unspecified)
system.caches.L0Cache_Controller.S.Store |          12     35.29%     35.29% |           8     23.53%     58.82% |           8     23.53%     82.35% |           6     17.65%    100.00% (Unspecified)
system.caches.L0Cache_Controller.S.Store::total           34                       (Unspecified)
system.caches.L0Cache_Controller.S.Replacement |          72     25.99%     25.99% |          52     18.77%     44.77% |          85     30.69%     75.45% |          68     24.55%    100.00% (Unspecified)
system.caches.L0Cache_Controller.S.Replacement::total          277                       (Unspecified)
system.caches.L0Cache_Controller.S.Inv   |          58     21.89%     21.89% |          66     24.91%     46.79% |          62     23.40%     70.19% |          79     29.81%    100.00% (Unspecified)
system.caches.L0Cache_Controller.S.Inv::total          265                       (Unspecified)
system.caches.L0Cache_Controller.M.Load  |         174     24.23%     24.23% |         178     24.79%     49.03% |         177     24.65%     73.68% |         189     26.32%    100.00% (Unspecified)
system.caches.L0Cache_Controller.M.Load::total          718                       (Unspecified)
system.caches.L0Cache_Controller.M.Ifetch |          10     16.13%     16.13% |          17     27.42%     43.55% |          20     32.26%     75.81% |          15     24.19%    100.00% (Unspecified)
system.caches.L0Cache_Controller.M.Ifetch::total           62                       (Unspecified)
system.caches.L0Cache_Controller.M.Store |        1349     24.63%     24.63% |        1409     25.73%     50.37% |        1405     25.66%     76.02% |        1313     23.98%    100.00% (Unspecified)
system.caches.L0Cache_Controller.M.Store::total         5476                       (Unspecified)
system.caches.L0Cache_Controller.M.Replacement |        5296     24.65%     24.65% |        5320     24.76%     49.42% |        5376     25.03%     74.44% |        5490     25.56%    100.00% (Unspecified)
system.caches.L0Cache_Controller.M.Replacement::total        21482                       (Unspecified)
system.caches.L0Cache_Controller.M.Inv   |        5591     25.31%     25.31% |        5543     25.10%     50.41% |        5552     25.14%     75.55% |        5400     24.45%    100.00% (Unspecified)
system.caches.L0Cache_Controller.M.Inv::total        22086                       (Unspecified)
system.caches.L1Cache_Controller.Load    |        2317     25.15%     25.15% |        2313     25.10%     50.25% |        2301     24.97%     75.22% |        2283     24.78%    100.00% (Unspecified)
system.caches.L1Cache_Controller.Load::total         9214                       (Unspecified)
system.caches.L1Cache_Controller.Store   |        8728     24.94%     24.94% |        8690     24.83%     49.77% |        8797     25.14%     74.91% |        8780     25.09%    100.00% (Unspecified)
system.caches.L1Cache_Controller.Store::total        34995                       (Unspecified)
system.caches.L1Cache_Controller.PutM    |        5296     24.65%     24.65% |        5320     24.76%     49.42% |        5376     25.03%     74.44% |        5490     25.56%    100.00% (Unspecified)
system.caches.L1Cache_Controller.PutM::total        21482                       (Unspecified)
system.caches.L1Cache_Controller.Replacement |        1857     24.93%     24.93% |        1837     24.66%     49.60% |        1853     24.88%     74.48% |        1901     25.52%    100.00% (Unspecified)
system.caches.L1Cache_Controller.Replacement::total         7448                       (Unspecified)
system.caches.L1Cache_Controller.FwdGetM |       14274     25.13%     25.13% |       14254     25.10%     50.23% |       14240     25.07%     75.31% |       14023     24.69%    100.00% (Unspecified)
system.caches.L1Cache_Controller.FwdGetM::total        56791                       (Unspecified)
system.caches.L1Cache_Controller.Inv     |          78     22.67%     22.67% |          83     24.13%     46.80% |          87     25.29%     72.09% |          96     27.91%    100.00% (Unspecified)
system.caches.L1Cache_Controller.Inv::total          344                       (Unspecified)
system.caches.L1Cache_Controller.PutAck  |         666     24.58%     24.58% |         674     24.88%     49.46% |         668     24.66%     74.12% |         701     25.88%    100.00% (Unspecified)
system.caches.L1Cache_Controller.PutAck::total         2709                       (Unspecified)
system.caches.L1Cache_Controller.DataDirNoAcks |         805     25.05%     25.05% |         796     24.77%     49.83% |         812     25.27%     75.10% |         800     24.90%    100.00% (Unspecified)
system.caches.L1Cache_Controller.DataDirNoAcks::total         3213                       (Unspecified)
system.caches.L1Cache_Controller.DataOwner |        8774     25.02%     25.02% |        8776     25.03%     50.06% |        8766     25.00%     75.06% |        8745     24.94%    100.00% (Unspecified)
system.caches.L1Cache_Controller.DataOwner::total        35061                       (Unspecified)
system.caches.L1Cache_Controller.InvAck  |          98     28.49%     28.49% |          83     24.13%     52.62% |          83     24.13%     76.74% |          80     23.26%    100.00% (Unspecified)
system.caches.L1Cache_Controller.InvAck::total          344                       (Unspecified)
system.caches.L1Cache_Controller.WB_Data |        5591     25.31%     25.31% |        5543     25.10%     50.41% |        5552     25.14%     75.55% |        5400     24.45%    100.00% (Unspecified)
system.caches.L1Cache_Controller.WB_Data::total        22086                       (Unspecified)
system.caches.L1Cache_Controller.I.Load  |        1928     25.38%     25.38% |        1907     25.10%     50.48% |        1916     25.22%     75.70% |        1846     24.30%    100.00% (Unspecified)
system.caches.L1Cache_Controller.I.Load::total         7597                       (Unspecified)
system.caches.L1Cache_Controller.I.Store |        7606     24.92%     24.92% |        7640     25.03%     49.95% |        7611     24.94%     74.89% |        7664     25.11%    100.00% (Unspecified)
system.caches.L1Cache_Controller.I.Store::total        30521                       (Unspecified)
system.caches.L1Cache_Controller.IS_D.DataDirNoAcks |         139     24.91%     24.91% |         122     21.86%     46.77% |         151     27.06%     73.84% |         146     26.16%    100.00% (Unspecified)
system.caches.L1Cache_Controller.IS_D.DataDirNoAcks::total          558                       (Unspecified)
system.caches.L1Cache_Controller.IS_D.DataOwner |        1789     25.42%     25.42% |        1785     25.36%     50.77% |        1765     25.07%     75.85% |        1700     24.15%    100.00% (Unspecified)
system.caches.L1Cache_Controller.IS_D.DataOwner::total         7039                       (Unspecified)
system.caches.L1Cache_Controller.IM_AD.DataDirNoAcks |         620     24.81%     24.81% |         648     25.93%     50.74% |         610     24.41%     75.15% |         621     24.85%    100.00% (Unspecified)
system.caches.L1Cache_Controller.IM_AD.DataDirNoAcks::total         2499                       (Unspecified)
system.caches.L1Cache_Controller.IM_AD.DataOwner |        6985     24.93%     24.93% |        6991     24.95%     49.88% |        7001     24.98%     74.86% |        7045     25.14%    100.00% (Unspecified)
system.caches.L1Cache_Controller.IM_AD.DataOwner::total        28022                       (Unspecified)
system.caches.L1Cache_Controller.IM_AD.InvAck |          95     29.32%     29.32% |          79     24.38%     53.70% |          74     22.84%     76.54% |          76     23.46%    100.00% (Unspecified)
system.caches.L1Cache_Controller.IM_AD.InvAck::total          324                       (Unspecified)
system.caches.L1Cache_Controller.S.Load  |           3     16.67%     16.67% |           4     22.22%     38.89% |           4     22.22%     61.11% |           7     38.89%    100.00% (Unspecified)
system.caches.L1Cache_Controller.S.Load::total           18                       (Unspecified)
system.caches.L1Cache_Controller.S.Store |          46     28.93%     28.93% |          26     16.35%     45.28% |          52     32.70%     77.99% |          35     22.01%    100.00% (Unspecified)
system.caches.L1Cache_Controller.S.Store::total          159                       (Unspecified)
system.caches.L1Cache_Controller.S.Replacement |          15     25.86%     25.86% |          13     22.41%     48.28% |          13     22.41%     70.69% |          17     29.31%    100.00% (Unspecified)
system.caches.L1Cache_Controller.S.Replacement::total           58                       (Unspecified)
system.caches.L1Cache_Controller.S.Inv   |          78     22.87%     22.87% |          83     24.34%     47.21% |          86     25.22%     72.43% |          94     27.57%    100.00% (Unspecified)
system.caches.L1Cache_Controller.S.Inv::total          341                       (Unspecified)
system.caches.L1Cache_Controller.SM_AD.Inv |           0      0.00%      0.00% |           0      0.00%      0.00% |           1     33.33%     33.33% |           2     66.67%    100.00% (Unspecified)
system.caches.L1Cache_Controller.SM_AD.Inv::total            3                       (Unspecified)
system.caches.L1Cache_Controller.SM_AD.DataDirNoAcks |          46     29.49%     29.49% |          26     16.67%     46.15% |          51     32.69%     78.85% |          33     21.15%    100.00% (Unspecified)
system.caches.L1Cache_Controller.SM_AD.DataDirNoAcks::total          156                       (Unspecified)
system.caches.L1Cache_Controller.SM_AD.InvAck |           3     15.00%     15.00% |           4     20.00%     35.00% |           9     45.00%     80.00% |           4     20.00%    100.00% (Unspecified)
system.caches.L1Cache_Controller.SM_AD.InvAck::total           20                       (Unspecified)
system.caches.L1Cache_Controller.M.Load  |         386     24.14%     24.14% |         402     25.14%     49.28% |         381     23.83%     73.11% |         430     26.89%    100.00% (Unspecified)
system.caches.L1Cache_Controller.M.Load::total         1599                       (Unspecified)
system.caches.L1Cache_Controller.M.Store |        1076     24.94%     24.94% |        1024     23.73%     48.67% |        1134     26.28%     74.95% |        1081     25.05%    100.00% (Unspecified)
system.caches.L1Cache_Controller.M.Store::total         4315                       (Unspecified)
system.caches.L1Cache_Controller.M.Replacement |         651     24.56%     24.56% |         661     24.93%     49.49% |         655     24.71%     74.20% |         684     25.80%    100.00% (Unspecified)
system.caches.L1Cache_Controller.M.Replacement::total         2651                       (Unspecified)
system.caches.L1Cache_Controller.M.FwdGetM |        8764     25.06%     25.06% |        8766     25.07%     50.13% |        8750     25.02%     75.15% |        8690     24.85%    100.00% (Unspecified)
system.caches.L1Cache_Controller.M.FwdGetM::total        34970                       (Unspecified)
system.caches.L1Cache_Controller.M_P.PutM |        5296     24.65%     24.65% |        5320     24.76%     49.42% |        5376     25.03%     74.44% |        5490     25.56%    100.00% (Unspecified)
system.caches.L1Cache_Controller.M_P.PutM::total        21482                       (Unspecified)
system.caches.L1Cache_Controller.M_P.Replacement |          94     26.40%     26.40% |          79     22.19%     48.60% |          91     25.56%     74.16% |          92     25.84%    100.00% (Unspecified)
system.caches.L1Cache_Controller.M_P.Replacement::total          356                       (Unspecified)
system.caches.L1Cache_Controller.M_P.FwdGetM |        5497     25.30%     25.30% |        5464     25.14%     50.44% |        5461     25.13%     75.57% |        5308     24.43%    100.00% (Unspecified)
system.caches.L1Cache_Controller.M_P.FwdGetM::total        21730                       (Unspecified)
system.caches.L1Cache_Controller.MP_D.Replacement |          94     26.40%     26.40% |          79     22.19%     48.60% |          91     25.56%     74.16% |          92     25.84%    100.00% (Unspecified)
system.caches.L1Cache_Controller.MP_D.Replacement::total          356                       (Unspecified)
system.caches.L1Cache_Controller.MP_D.WB_Data |        5591     25.31%     25.31% |        5543     25.10%     50.41% |        5552     25.14%     75.55% |        5400     24.45%    100.00% (Unspecified)
system.caches.L1Cache_Controller.MP_D.WB_Data::total        22086                       (Unspecified)
system.caches.L1Cache_Controller.MI_A.Replacement |         972     24.82%     24.82% |         983     25.10%     49.92% |         979     25.00%     74.92% |         982     25.08%    100.00% (Unspecified)
system.caches.L1Cache_Controller.MI_A.Replacement::total         3916                       (Unspecified)
system.caches.L1Cache_Controller.MI_A.FwdGetM |          13     14.29%     14.29% |          24     26.37%     40.66% |          29     31.87%     72.53% |          25     27.47%    100.00% (Unspecified)
system.caches.L1Cache_Controller.MI_A.FwdGetM::total           91                       (Unspecified)
system.caches.L1Cache_Controller.MI_A.PutAck |         638     24.92%     24.92% |         637     24.88%     49.80% |         626     24.45%     74.26% |         659     25.74%    100.00% (Unspecified)
system.caches.L1Cache_Controller.MI_A.PutAck::total         2560                       (Unspecified)
system.caches.L1Cache_Controller.SI_A.Replacement |          26     28.26%     28.26% |          17     18.48%     46.74% |          20     21.74%     68.48% |          29     31.52%    100.00% (Unspecified)
system.caches.L1Cache_Controller.SI_A.Replacement::total           92                       (Unspecified)
system.caches.L1Cache_Controller.SI_A.PutAck |          15     25.86%     25.86% |          13     22.41%     48.28% |          13     22.41%     70.69% |          17     29.31%    100.00% (Unspecified)
system.caches.L1Cache_Controller.SI_A.PutAck::total           58                       (Unspecified)
system.caches.L1Cache_Controller.II_A.Replacement |           5     26.32%     26.32% |           5     26.32%     52.63% |           4     21.05%     73.68% |           5     26.32%    100.00% (Unspecified)
system.caches.L1Cache_Controller.II_A.Replacement::total           19                       (Unspecified)
system.caches.L1Cache_Controller.II_A.PutAck |          13     14.29%     14.29% |          24     26.37%     40.66% |          29     31.87%     72.53% |          25     27.47%    100.00% (Unspecified)
system.caches.L1Cache_Controller.II_A.PutAck::total           91                       (Unspecified)
system.caches.Directory_Controller.GetS          7597      0.00%      0.00% (Unspecified)
system.caches.Directory_Controller.GetM         30677      0.00%      0.00% (Unspecified)
system.caches.Directory_Controller.PutSNotLast            9      0.00%      0.00% (Unspecified)
system.caches.Directory_Controller.PutSLast           49      0.00%      0.00% (Unspecified)
system.caches.Directory_Controller.PutMOwner         2560      0.00%      0.00% (Unspecified)
system.caches.Directory_Controller.PutMNonOwner           91      0.00%      0.00% (Unspecified)
system.caches.Directory_Controller.MemData          102      0.00%      0.00% (Unspecified)
system.caches.Directory_Controller.I.GetM          102      0.00%      0.00% (Unspecified)
system.caches.Directory_Controller.S.GetS           46      0.00%      0.00% (Unspecified)
system.caches.Directory_Controller.S.GetM          463      0.00%      0.00% (Unspecified)
system.caches.Directory_Controller.S.PutSNotLast            9      0.00%      0.00% (Unspecified)
system.caches.Directory_Controller.S.PutSLast           49      0.00%      0.00% (Unspecified)
system.caches.Directory_Controller.M.GetS         7039      0.00%      0.00% (Unspecified)
system.caches.Directory_Controller.M.GetM        28022      0.00%      0.00% (Unspecified)
system.caches.Directory_Controller.M.PutMOwner         2560      0.00%      0.00% (Unspecified)
system.caches.Directory_Controller.M.PutMNonOwner           91      0.00%      0.00% (Unspecified)
system.caches.Directory_Controller.LLCOnly.GetS          512      0.00%      0.00% (Unspecified)
system.caches.Directory_Controller.LLCOnly.GetM         2090      0.00%      0.00% (Unspecified)
system.caches.Directory_Controller.M_m.MemData          102      0.00%      0.00% (Unspecified)
system.caches.RequestType.LD.latency_hist_seqr::bucket_size          128                       (Unspecified)
system.caches.RequestType.LD.latency_hist_seqr::max_bucket         1279                       (Unspecified)
system.caches.RequestType.LD.latency_hist_seqr::samples         5042                       (Unspecified)
system.caches.RequestType.LD.latency_hist_seqr::mean   416.378620                       (Unspecified)
system.caches.RequestType.LD.latency_hist_seqr::gmean   153.442582                       (Unspecified)
system.caches.RequestType.LD.latency_hist_seqr::stdev   256.730579                       (Unspecified)
system.caches.RequestType.LD.latency_hist_seqr |        1202     23.84%     23.84% |           0      0.00%     23.84% |           0      0.00%     23.84% |        2705     53.65%     77.49% |         861     17.08%     94.57% |           0      0.00%     94.57% |           0      0.00%     94.57% |         225      4.46%     99.03% |          49      0.97%    100.00% |           0      0.00%    100.00% (Unspecified)
system.caches.RequestType.LD.latency_hist_seqr::total         5042                       (Unspecified)
system.caches.RequestType.LD.hit_latency_hist_seqr::bucket_size            1                       (Unspecified)
system.caches.RequestType.LD.hit_latency_hist_seqr::max_bucket            9                       (Unspecified)
system.caches.RequestType.LD.hit_latency_hist_seqr::samples          723                       (Unspecified)
system.caches.RequestType.LD.hit_latency_hist_seqr::mean            1                       (Unspecified)
system.caches.RequestType.LD.hit_latency_hist_seqr::gmean            1                       (Unspecified)
system.caches.RequestType.LD.hit_latency_hist_seqr |           0      0.00%      0.00% |         723    100.00%    100.00% |           0      0.00%    100.00% |           0      0.00%    100.00% |           0      0.00%    100.00% |           0      0.00%    100.00% |           0      0.00%    100.00% |           0      0.00%    100.00% |           0      0.00%    100.00% |           0      0.00%    100.00% (Unspecified)
system.caches.RequestType.LD.hit_latency_hist_seqr::total          723                       (Unspecified)
system.caches.RequestType.LD.miss_latency_hist_seqr::bucket_size          128                       (Unspecified)
system.caches.RequestType.LD.miss_latency_hist_seqr::max_bucket         1279                       (Unspecified)
system.caches.RequestType.LD.miss_latency_hist_seqr::samples         4319                       (Unspecified)
system.caches.RequestType.LD.miss_latency_hist_seqr::mean   485.912943                       (Unspecified)
system.caches.RequestType.LD.miss_latency_hist_seqr::gmean   356.346860                       (Unspecified)
system.caches.RequestType.LD.miss_latency_hist_seqr::stdev   207.895809                       (Unspecified)
system.caches.RequestType.LD.miss_latency_hist_seqr |         479     11.09%     11.09% |           0      0.00%     11.09% |           0      0.00%     11.09% |        2705     62.63%     73.72% |         861     19.94%     93.66% |           0      0.00%     93.66% |           0      0.00%     93.66% |         225      5.21%     98.87% |          49      1.13%    100.00% |           0      0.00%    100.00% (Unspecified)
system.caches.RequestType.LD.miss_latency_hist_seqr::total         4319                       (Unspecified)
system.caches.RequestType.ST.latency_hist_seqr::bucket_size          128                       (Unspecified)
system.caches.RequestType.ST.latency_hist_seqr::max_bucket         1279                       (Unspecified)
system.caches.RequestType.ST.latency_hist_seqr::samples        40468                       (Unspecified)
system.caches.RequestType.ST.latency_hist_seqr::mean   414.483320                       (Unspecified)
system.caches.RequestType.ST.latency_hist_seqr::gmean   155.102381                       (Unspecified)
system.caches.RequestType.ST.latency_hist_seqr::stdev   257.168939                       (Unspecified)
system.caches.RequestType.ST.latency_hist_seqr |        9791     24.19%     24.19% |           1      0.00%     24.20% |           1      0.00%     24.20% |       21573     53.31%     77.51% |        6932     17.13%     94.64% |           0      0.00%     94.64% |           0      0.00%     94.64% |        1677      4.14%     98.78% |         493      1.22%    100.00% |           0      0.00%    100.00% (Unspecified)
system.caches.RequestType.ST.latency_hist_seqr::total        40468                       (Unspecified)
system.caches.RequestType.ST.hit_latency_hist_seqr::bucket_size            1                       (Unspecified)
system.caches.RequestType.ST.hit_latency_hist_seqr::max_bucket            9                       (Unspecified)
system.caches.RequestType.ST.hit_latency_hist_seqr::samples         5476                       (Unspecified)
system.caches.RequestType.ST.hit_latency_hist_seqr::mean            1                       (Unspecified)
system.caches.RequestType.ST.hit_latency_hist_seqr::gmean            1                       (Unspecified)
system.caches.RequestType.ST.hit_latency_hist_seqr |           0      0.00%      0.00% |        5476    100.00%    100.00% |           0      0.00%    100.00% |           0      0.00%    100.00% |           0      0.00%    100.00% |           0      0.00%    100.00% |           0      0.00%    100.00% |           0      0.00%    100.00% |           0      0.00%    100.00% |           0      0.00%    100.00% (Unspecified)
system.caches.RequestType.ST.hit_latency_hist_seqr::total         5476                       (Unspecified)
system.caches.RequestType.ST.miss_latency_hist_seqr::bucket_size          128                       (Unspecified)
system.caches.RequestType.ST.miss_latency_hist_seqr::max_bucket         1279                       (Unspecified)
system.caches.RequestType.ST.miss_latency_hist_seqr::samples        34992                       (Unspecified)
system.caches.RequestType.ST.miss_latency_hist_seqr::mean   479.190529                       (Unspecified)
system.caches.RequestType.ST.miss_latency_hist_seqr::gmean   341.534616                       (Unspecified)
system.caches.RequestType.ST.miss_latency_hist_seqr::stdev   213.407343                       (Unspecified)
system.caches.RequestType.ST.miss_latency_hist_seqr |        4315     12.33%     12.33% |           1      0.00%     12.33% |           1      0.00%     12.34% |       21573     61.65%     73.99% |        6932     19.81%     93.80% |           0      0.00%     93.80% |           0      0.00%     93.80% |        1677      4.79%     98.59% |         493      1.41%    100.00% |           0      0.00%    100.00% (Unspecified)
system.caches.RequestType.ST.miss_latency_hist_seqr::total        34992                       (Unspecified)
system.caches.RequestType.IFETCH.latency_hist_seqr::bucket_size          128                       (Unspecified)
system.caches.RequestType.IFETCH.latency_hist_seqr::max_bucket         1279                       (Unspecified)
system.caches.RequestType.IFETCH.latency_hist_seqr::samples         4958                       (Unspecified)
system.caches.RequestType.IFETCH.latency_hist_seqr::mean   415.384026                       (Unspecified)
system.caches.RequestType.IFETCH.latency_hist_seqr::gmean   210.935694                       (Unspecified)
system.caches.RequestType.IFETCH.latency_hist_seqr::stdev   254.706490                       (Unspecified)
system.caches.RequestType.IFETCH.latency_hist_seqr |        1201     24.22%     24.22% |           0      0.00%     24.22% |           0      0.00%     24.22% |        2697     54.40%     78.62% |         795     16.03%     94.66% |           0      0.00%     94.66% |           0      0.00%     94.66% |         209      4.22%     98.87% |          56      1.13%    100.00% |           0      0.00%    100.00% (Unspecified)
system.caches.RequestType.IFETCH.latency_hist_seqr::total         4958                       (Unspecified)
system.caches.RequestType.IFETCH.hit_latency_hist_seqr::bucket_size            1                       (Unspecified)
system.caches.RequestType.IFETCH.hit_latency_hist_seqr::max_bucket            9                       (Unspecified)
system.caches.RequestType.IFETCH.hit_latency_hist_seqr::samples           63                       (Unspecified)
system.caches.RequestType.IFETCH.hit_latency_hist_seqr::mean            1                       (Unspecified)
system.caches.RequestType.IFETCH.hit_latency_hist_seqr::gmean            1                       (Unspecified)
system.caches.RequestType.IFETCH.hit_latency_hist_seqr |           0      0.00%      0.00% |          63    100.00%    100.00% |           0      0.00%    100.00% |           0      0.00%    100.00% |           0      0.00%    100.00% |           0      0.00%    100.00% |           0      0.00%    100.00% |           0      0.00%    100.00% |           0      0.00%    100.00% |           0      0.00%    100.00% (Unspecified)
system.caches.RequestType.IFETCH.hit_latency_hist_seqr::total           63                       (Unspecified)
system.caches.RequestType.IFETCH.miss_latency_hist_seqr::bucket_size          128                       (Unspecified)
system.caches.RequestType.IFETCH.miss_latency_hist_seqr::max_bucket         1279                       (Unspecified)
system.caches.RequestType.IFETCH.miss_latency_hist_seqr::samples         4895                       (Unspecified)
system.caches.RequestType.IFETCH.miss_latency_hist_seqr::mean   420.717263                       (Unspecified)
system.caches.RequestType.IFETCH.miss_latency_hist_seqr::gmean   225.976110                       (Unspecified)
system.caches.RequestType.IFETCH.miss_latency_hist_seqr::stdev   251.935750                       (Unspecified)
system.caches.RequestType.IFETCH.miss_latency_hist_seqr |        1138     23.25%     23.25% |           0      0.00%     23.25% |           0      0.00%     23.25% |        2697     55.10%     78.35% |         795     16.24%     94.59% |           0      0.00%     94.59% |           0      0.00%     94.59% |         209      4.27%     98.86% |          56      1.14%    100.00% |           0      0.00%    100.00% (Unspecified)
system.caches.RequestType.IFETCH.miss_latency_hist_seqr::total         4895                       (Unspecified)
system.caches.controllers0.DCache.m_demand_hits            0                       # Number of cache demand hits (Unspecified)
system.caches.controllers0.DCache.m_demand_misses            0                       # Number of cache demand misses (Unspecified)
system.caches.controllers0.DCache.m_demand_accesses            0                       # Number of cache demand accesses (Unspecified)
system.caches.controllers0.ICache.m_demand_hits            0                       # Number of cache demand hits (Unspecified)
system.caches.controllers0.ICache.m_demand_misses            0                       # Number of cache demand misses (Unspecified)
system.caches.controllers0.ICache.m_demand_accesses            0                       # Number of cache demand accesses (Unspecified)
system.caches.controllers0.forwardFromL1.m_buf_msgs     0.001084                       # Average number of messages in buffer (Unspecified)
system.caches.controllers0.forwardFromL1.m_stall_time  4995.352528                       # Average number of cycles messages are stalled in this MB (Unspecified)
system.caches.controllers0.mandatoryQueue.m_buf_msgs     0.004722                       # Average number of messages in buffer (Unspecified)
system.caches.controllers0.mandatoryQueue.m_stall_time   999.999619                       # Average number of cycles messages are stalled in this MB (Unspecified)
system.caches.controllers0.power_state.pwrStateResidencyTicks::UNDEFINED   5245863001                       # Cumulative time (in ticks) in various power states (Tick)
system.caches.controllers0.requestToL1.m_buf_msgs     0.003115                       # Average number of messages in buffer (Unspecified)
system.caches.controllers0.requestToL1.m_stall_time   999.999428                       # Average number of cycles messages are stalled in this MB (Unspecified)
system.caches.controllers0.responseFromL1.m_buf_msgs     0.002105                       # Average number of messages in buffer (Unspecified)
system.caches.controllers0.responseFromL1.m_stall_time  4999.395714                       # Average number of cycles messages are stalled in this MB (Unspecified)
system.caches.controllers0.responseToL1.m_buf_msgs     0.001066                       # Average number of messages in buffer (Unspecified)
system.caches.controllers0.responseToL1.m_stall_time   999.070315                       # Average number of cycles messages are stalled in this MB (Unspecified)
system.caches.controllers0.xyzStatsObject.power_state.pwrStateResidencyTicks::UNDEFINED   5245863001                       # Cumulative time (in ticks) in various power states (Tick)
system.caches.controllers1.DCache.m_demand_hits            0                       # Number of cache demand hits (Unspecified)
system.caches.controllers1.DCache.m_demand_misses            0                       # Number of cache demand misses (Unspecified)
system.caches.controllers1.DCache.m_demand_accesses            0                       # Number of cache demand accesses (Unspecified)
system.caches.controllers1.ICache.m_demand_hits            0                       # Number of cache demand hits (Unspecified)
system.caches.controllers1.ICache.m_demand_misses            0                       # Number of cache demand misses (Unspecified)
system.caches.controllers1.ICache.m_demand_accesses            0                       # Number of cache demand accesses (Unspecified)
system.caches.controllers1.forwardFromL1.m_buf_msgs     0.001075                       # Average number of messages in buffer (Unspecified)
system.caches.controllers1.forwardFromL1.m_stall_time  4994.864525                       # Average number of cycles messages are stalled in this MB (Unspecified)
system.caches.controllers1.mandatoryQueue.m_buf_msgs     0.004732                       # Average number of messages in buffer (Unspecified)
system.caches.controllers1.mandatoryQueue.m_stall_time   999.999619                       # Average number of cycles messages are stalled in this MB (Unspecified)
system.caches.controllers1.power_state.pwrStateResidencyTicks::UNDEFINED   5245863001                       # Cumulative time (in ticks) in various power states (Tick)
system.caches.controllers1.requestToL1.m_buf_msgs     0.003112                       # Average number of messages in buffer (Unspecified)
system.caches.controllers1.requestToL1.m_stall_time   999.999428                       # Average number of cycles messages are stalled in this MB (Unspecified)
system.caches.controllers1.responseFromL1.m_buf_msgs     0.002097                       # Average number of messages in buffer (Unspecified)
system.caches.controllers1.responseFromL1.m_stall_time  4999.761717                       # Average number of cycles messages are stalled in this MB (Unspecified)
system.caches.controllers1.responseToL1.m_buf_msgs     0.001057                       # Average number of messages in buffer (Unspecified)
system.caches.controllers1.responseToL1.m_stall_time   998.972714                       # Average number of cycles messages are stalled in this MB (Unspecified)
system.caches.controllers1.xyzStatsObject.power_state.pwrStateResidencyTicks::UNDEFINED   5245863001                       # Cumulative time (in ticks) in various power states (Tick)
system.caches.controllers2.DCache.m_demand_hits            0                       # Number of cache demand hits (Unspecified)
system.caches.controllers2.DCache.m_demand_misses            0                       # Number of cache demand misses (Unspecified)
system.caches.controllers2.DCache.m_demand_accesses            0                       # Number of cache demand accesses (Unspecified)
system.caches.controllers2.ICache.m_demand_hits            0                       # Number of cache demand hits (Unspecified)
system.caches.controllers2.ICache.m_demand_misses            0                       # Number of cache demand misses (Unspecified)
system.caches.controllers2.ICache.m_demand_accesses            0                       # Number of cache demand accesses (Unspecified)
system.caches.controllers2.forwardFromL1.m_buf_msgs     0.001077                       # Average number of messages in buffer (Unspecified)
system.caches.controllers2.forwardFromL1.m_stall_time  4997.670545                       # Average number of cycles messages are stalled in this MB (Unspecified)
system.caches.controllers2.mandatoryQueue.m_buf_msgs     0.004767                       # Average number of messages in buffer (Unspecified)
system.caches.controllers2.mandatoryQueue.m_stall_time   999.999619                       # Average number of cycles messages are stalled in this MB (Unspecified)
system.caches.controllers2.power_state.pwrStateResidencyTicks::UNDEFINED   5245863001                       # Cumulative time (in ticks) in various power states (Tick)
system.caches.controllers2.requestToL1.m_buf_msgs     0.003140                       # Average number of messages in buffer (Unspecified)
system.caches.controllers2.requestToL1.m_stall_time   999.999428                       # Average number of cycles messages are stalled in this MB (Unspecified)
system.caches.controllers2.responseFromL1.m_buf_msgs     0.002115                       # Average number of messages in buffer (Unspecified)
system.caches.controllers2.responseFromL1.m_stall_time  4999.639716                       # Average number of cycles messages are stalled in this MB (Unspecified)
system.caches.controllers2.responseToL1.m_buf_msgs     0.001058                       # Average number of messages in buffer (Unspecified)
system.caches.controllers2.responseToL1.m_stall_time   999.533918                       # Average number of cycles messages are stalled in this MB (Unspecified)
system.caches.controllers2.xyzStatsObject.power_state.pwrStateResidencyTicks::UNDEFINED   5245863001                       # Cumulative time (in ticks) in various power states (Tick)
system.caches.controllers3.DCache.m_demand_hits            0                       # Number of cache demand hits (Unspecified)
system.caches.controllers3.DCache.m_demand_misses            0                       # Number of cache demand misses (Unspecified)
system.caches.controllers3.DCache.m_demand_accesses            0                       # Number of cache demand accesses (Unspecified)
system.caches.controllers3.ICache.m_demand_hits            0                       # Number of cache demand hits (Unspecified)
system.caches.controllers3.ICache.m_demand_misses            0                       # Number of cache demand misses (Unspecified)
system.caches.controllers3.ICache.m_demand_accesses            0                       # Number of cache demand accesses (Unspecified)
system.caches.controllers3.forwardFromL1.m_buf_msgs     0.001051                       # Average number of messages in buffer (Unspecified)
system.caches.controllers3.forwardFromL1.m_stall_time  4996.816539                       # Average number of cycles messages are stalled in this MB (Unspecified)
system.caches.controllers3.mandatoryQueue.m_buf_msgs     0.004721                       # Average number of messages in buffer (Unspecified)
system.caches.controllers3.mandatoryQueue.m_stall_time   999.999619                       # Average number of cycles messages are stalled in this MB (Unspecified)
system.caches.controllers3.power_state.pwrStateResidencyTicks::UNDEFINED   5245863001                       # Cumulative time (in ticks) in various power states (Tick)
system.caches.controllers3.requestToL1.m_buf_msgs     0.003155                       # Average number of messages in buffer (Unspecified)
system.caches.controllers3.requestToL1.m_stall_time   999.999428                       # Average number of cycles messages are stalled in this MB (Unspecified)
system.caches.controllers3.responseFromL1.m_buf_msgs     0.002109                       # Average number of messages in buffer (Unspecified)
system.caches.controllers3.responseFromL1.m_stall_time  4999.517715                       # Average number of cycles messages are stalled in this MB (Unspecified)
system.caches.controllers3.responseToL1.m_buf_msgs     0.001029                       # Average number of messages in buffer (Unspecified)
system.caches.controllers3.responseToL1.m_stall_time   999.363117                       # Average number of cycles messages are stalled in this MB (Unspecified)
system.caches.controllers3.xyzStatsObject.power_state.pwrStateResidencyTicks::UNDEFINED   5245863001                       # Cumulative time (in ticks) in various power states (Tick)
system.caches.controllers4.cacheMemory.m_demand_hits            0                       # Number of cache demand hits (Unspecified)
system.caches.controllers4.cacheMemory.m_demand_misses            0                       # Number of cache demand misses (Unspecified)
system.caches.controllers4.cacheMemory.m_demand_accesses            0                       # Number of cache demand accesses (Unspecified)
system.caches.controllers4.forwardFromDir.m_buf_msgs     0.012294                       # Average number of messages in buffer (Unspecified)
system.caches.controllers4.forwardFromDir.m_stall_time 10758.701668                       # Average number of cycles messages are stalled in this MB (Unspecified)
system.caches.controllers4.forwardFromDir.m_stall_count         5497                       # Number of times messages were stalled (Unspecified)
system.caches.controllers4.forwardToL0.m_buf_msgs     0.001084                       # Average number of messages in buffer (Unspecified)
system.caches.controllers4.forwardToL0.m_stall_time   999.071268                       # Average number of cycles messages are stalled in this MB (Unspecified)
system.caches.controllers4.power_state.pwrStateResidencyTicks::UNDEFINED   5245863001                       # Cumulative time (in ticks) in various power states (Tick)
system.caches.controllers4.requestFromL0.m_buf_msgs     0.063770                       # Average number of messages in buffer (Unspecified)
system.caches.controllers4.requestFromL0.m_stall_time 42262.044000                       # Average number of cycles messages are stalled in this MB (Unspecified)
system.caches.controllers4.requestFromL0.m_stall_count         1097                       # Number of times messages were stalled (Unspecified)
system.caches.controllers4.requestToDir.m_buf_msgs     0.001953                       # Average number of messages in buffer (Unspecified)
system.caches.controllers4.requestToDir.m_stall_time   999.998475                       # Average number of cycles messages are stalled in this MB (Unspecified)
system.caches.controllers4.responseFromDirOrSibling.m_buf_msgs     0.001845                       # Average number of messages in buffer (Unspecified)
system.caches.controllers4.responseFromDirOrSibling.m_stall_time  5680.992053                       # Average number of cycles messages are stalled in this MB (Unspecified)
system.caches.controllers4.responseFromL0.m_buf_msgs     0.001066                       # Average number of messages in buffer (Unspecified)
system.caches.controllers4.responseFromL0.m_stall_time  4995.347763                       # Average number of cycles messages are stalled in this MB (Unspecified)
system.caches.controllers4.responseToDirOrSibling.m_buf_msgs     0.001688                       # Average number of messages in buffer (Unspecified)
system.caches.controllers4.responseToDirOrSibling.m_stall_time   999.069362                       # Average number of cycles messages are stalled in this MB (Unspecified)
system.caches.controllers4.responseToL0.m_buf_msgs     0.002105                       # Average number of messages in buffer (Unspecified)
system.caches.controllers4.responseToL0.m_stall_time   999.879905                       # Average number of cycles messages are stalled in this MB (Unspecified)
system.caches.controllers4.xyzStatsObject.power_state.pwrStateResidencyTicks::UNDEFINED   5245863001                       # Cumulative time (in ticks) in various power states (Tick)
system.caches.controllers5.cacheMemory.m_demand_hits            0                       # Number of cache demand hits (Unspecified)
system.caches.controllers5.cacheMemory.m_demand_misses            0                       # Number of cache demand misses (Unspecified)
system.caches.controllers5.cacheMemory.m_demand_accesses            0                       # Number of cache demand accesses (Unspecified)
system.caches.controllers5.forwardFromDir.m_buf_msgs     0.012236                       # Average number of messages in buffer (Unspecified)
system.caches.controllers5.forwardFromDir.m_stall_time 10702.650833                       # Average number of cycles messages are stalled in this MB (Unspecified)
system.caches.controllers5.forwardFromDir.m_stall_count         5464                       # Number of times messages were stalled (Unspecified)
system.caches.controllers5.forwardToL0.m_buf_msgs     0.001075                       # Average number of messages in buffer (Unspecified)
system.caches.controllers5.forwardToL0.m_stall_time   998.973667                       # Average number of cycles messages are stalled in this MB (Unspecified)
system.caches.controllers5.power_state.pwrStateResidencyTicks::UNDEFINED   5245863001                       # Cumulative time (in ticks) in various power states (Tick)
system.caches.controllers5.requestFromL0.m_buf_msgs     0.064640                       # Average number of messages in buffer (Unspecified)
system.caches.controllers5.requestFromL0.m_stall_time 42599.066337                       # Average number of cycles messages are stalled in this MB (Unspecified)
system.caches.controllers5.requestFromL0.m_stall_count         1084                       # Number of times messages were stalled (Unspecified)
system.caches.controllers5.requestToDir.m_buf_msgs     0.001953                       # Average number of messages in buffer (Unspecified)
system.caches.controllers5.requestToDir.m_stall_time   999.998475                       # Average number of cycles messages are stalled in this MB (Unspecified)
system.caches.controllers5.responseFromDirOrSibling.m_buf_msgs     0.001840                       # Average number of messages in buffer (Unspecified)
system.caches.controllers5.responseFromDirOrSibling.m_stall_time  5673.196193                       # Average number of cycles messages are stalled in this MB (Unspecified)
system.caches.controllers5.responseFromL0.m_buf_msgs     0.001057                       # Average number of messages in buffer (Unspecified)
system.caches.controllers5.responseFromL0.m_stall_time  4994.859759                       # Average number of cycles messages are stalled in this MB (Unspecified)
system.caches.controllers5.responseToDirOrSibling.m_buf_msgs     0.001691                       # Average number of messages in buffer (Unspecified)
system.caches.controllers5.responseToDirOrSibling.m_stall_time   998.971761                       # Average number of cycles messages are stalled in this MB (Unspecified)
system.caches.controllers5.responseToL0.m_buf_msgs     0.002097                       # Average number of messages in buffer (Unspecified)
system.caches.controllers5.responseToL0.m_stall_time   999.953106                       # Average number of cycles messages are stalled in this MB (Unspecified)
system.caches.controllers5.xyzStatsObject.power_state.pwrStateResidencyTicks::UNDEFINED   5245863001                       # Cumulative time (in ticks) in various power states (Tick)
system.caches.controllers6.cacheMemory.m_demand_hits            0                       # Number of cache demand hits (Unspecified)
system.caches.controllers6.cacheMemory.m_demand_misses            0                       # Number of cache demand misses (Unspecified)
system.caches.controllers6.cacheMemory.m_demand_accesses            0                       # Number of cache demand accesses (Unspecified)
system.caches.controllers6.forwardFromDir.m_buf_msgs     0.012228                       # Average number of messages in buffer (Unspecified)
system.caches.controllers6.forwardFromDir.m_stall_time 10608.157325                       # Average number of cycles messages are stalled in this MB (Unspecified)
system.caches.controllers6.forwardFromDir.m_stall_count         5461                       # Number of times messages were stalled (Unspecified)
system.caches.controllers6.forwardToL0.m_buf_msgs     0.001077                       # Average number of messages in buffer (Unspecified)
system.caches.controllers6.forwardToL0.m_stall_time   999.534872                       # Average number of cycles messages are stalled in this MB (Unspecified)
system.caches.controllers6.power_state.pwrStateResidencyTicks::UNDEFINED   5245863001                       # Cumulative time (in ticks) in various power states (Tick)
system.caches.controllers6.requestFromL0.m_buf_msgs     0.063852                       # Average number of messages in buffer (Unspecified)
system.caches.controllers6.requestFromL0.m_stall_time 42285.550333                       # Average number of cycles messages are stalled in this MB (Unspecified)
system.caches.controllers6.requestFromL0.m_stall_count         1094                       # Number of times messages were stalled (Unspecified)
system.caches.controllers6.requestToDir.m_buf_msgs     0.001953                       # Average number of messages in buffer (Unspecified)
system.caches.controllers6.requestToDir.m_stall_time   999.998475                       # Average number of cycles messages are stalled in this MB (Unspecified)
system.caches.controllers6.responseFromDirOrSibling.m_buf_msgs     0.001842                       # Average number of messages in buffer (Unspecified)
system.caches.controllers6.responseFromDirOrSibling.m_stall_time  5680.462874                       # Average number of cycles messages are stalled in this MB (Unspecified)
system.caches.controllers6.responseFromL0.m_buf_msgs     0.001058                       # Average number of messages in buffer (Unspecified)
system.caches.controllers6.responseFromL0.m_stall_time  4997.665780                       # Average number of cycles messages are stalled in this MB (Unspecified)
system.caches.controllers6.responseToDirOrSibling.m_buf_msgs     0.001690                       # Average number of messages in buffer (Unspecified)
system.caches.controllers6.responseToDirOrSibling.m_stall_time   999.532965                       # Average number of cycles messages are stalled in this MB (Unspecified)
system.caches.controllers6.responseToL0.m_buf_msgs     0.002115                       # Average number of messages in buffer (Unspecified)
system.caches.controllers6.responseToL0.m_stall_time   999.928706                       # Average number of cycles messages are stalled in this MB (Unspecified)
system.caches.controllers6.xyzStatsObject.power_state.pwrStateResidencyTicks::UNDEFINED   5245863001                       # Cumulative time (in ticks) in various power states (Tick)
system.caches.controllers7.cacheMemory.m_demand_hits            0                       # Number of cache demand hits (Unspecified)
system.caches.controllers7.cacheMemory.m_demand_misses            0                       # Number of cache demand misses (Unspecified)
system.caches.controllers7.cacheMemory.m_demand_accesses            0                       # Number of cache demand accesses (Unspecified)
system.caches.controllers7.forwardFromDir.m_buf_msgs     0.011932                       # Average number of messages in buffer (Unspecified)
system.caches.controllers7.forwardFromDir.m_stall_time 10557.271513                       # Average number of cycles messages are stalled in this MB (Unspecified)
system.caches.controllers7.forwardFromDir.m_stall_count         5308                       # Number of times messages were stalled (Unspecified)
system.caches.controllers7.forwardToL0.m_buf_msgs     0.001051                       # Average number of messages in buffer (Unspecified)
system.caches.controllers7.forwardToL0.m_stall_time   999.364070                       # Average number of cycles messages are stalled in this MB (Unspecified)
system.caches.controllers7.power_state.pwrStateResidencyTicks::UNDEFINED   5245863001                       # Cumulative time (in ticks) in various power states (Tick)
system.caches.controllers7.requestFromL0.m_buf_msgs     0.067294                       # Average number of messages in buffer (Unspecified)
system.caches.controllers7.requestFromL0.m_stall_time 43943.913313                       # Average number of cycles messages are stalled in this MB (Unspecified)
system.caches.controllers7.requestFromL0.m_stall_count         1108                       # Number of times messages were stalled (Unspecified)
system.caches.controllers7.requestToDir.m_buf_msgs     0.001953                       # Average number of messages in buffer (Unspecified)
system.caches.controllers7.requestToDir.m_stall_time   999.998475                       # Average number of cycles messages are stalled in this MB (Unspecified)
system.caches.controllers7.responseFromDirOrSibling.m_buf_msgs     0.001835                       # Average number of messages in buffer (Unspecified)
system.caches.controllers7.responseFromDirOrSibling.m_stall_time  5674.422302                       # Average number of cycles messages are stalled in this MB (Unspecified)
system.caches.controllers7.responseFromL0.m_buf_msgs     0.001029                       # Average number of messages in buffer (Unspecified)
system.caches.controllers7.responseFromL0.m_stall_time  4996.811773                       # Average number of cycles messages are stalled in this MB (Unspecified)
system.caches.controllers7.responseToDirOrSibling.m_buf_msgs     0.001680                       # Average number of messages in buffer (Unspecified)
system.caches.controllers7.responseToDirOrSibling.m_stall_time   999.362164                       # Average number of cycles messages are stalled in this MB (Unspecified)
system.caches.controllers7.responseToL0.m_buf_msgs     0.002109                       # Average number of messages in buffer (Unspecified)
system.caches.controllers7.responseToL0.m_stall_time   999.904306                       # Average number of cycles messages are stalled in this MB (Unspecified)
system.caches.controllers7.xyzStatsObject.power_state.pwrStateResidencyTicks::UNDEFINED   5245863001                       # Cumulative time (in ticks) in various power states (Tick)
system.caches.controllers8.cacheMemory.m_demand_hits            0                       # Number of cache demand hits (Unspecified)
system.caches.controllers8.cacheMemory.m_demand_misses            0                       # Number of cache demand misses (Unspecified)
system.caches.controllers8.cacheMemory.m_demand_accesses            0                       # Number of cache demand accesses (Unspecified)
system.caches.controllers8.forwardToCache.m_buf_msgs     0.007288                       # Average number of messages in buffer (Unspecified)
system.caches.controllers8.forwardToCache.m_stall_time   999.535825                       # Average number of cycles messages are stalled in this MB (Unspecified)
system.caches.controllers8.power_state.pwrStateResidencyTicks::UNDEFINED   5245863001                       # Cumulative time (in ticks) in various power states (Tick)
system.caches.controllers8.requestFromCache.m_not_avail_count         5302                       # Number of times this buffer did not have N slots available (Unspecified)
system.caches.controllers8.requestFromCache.m_buf_msgs     0.007812                       # Average number of messages in buffer (Unspecified)
system.caches.controllers8.requestFromCache.m_stall_time 481386.084995                       # Average number of cycles messages are stalled in this MB (Unspecified)
system.caches.controllers8.requestFromCache.m_occupancy     0.007812                       # Average occupancy of buffer capacity (Unspecified)
system.caches.controllers8.requestToMemory.m_buf_msgs     0.000019                       # Average number of messages in buffer (Unspecified)
system.caches.controllers8.requestToMemory.m_stall_time   999.975028                       # Average number of cycles messages are stalled in this MB (Unspecified)
system.caches.controllers8.responseFromMemory.m_buf_msgs     0.000019                       # Average number of messages in buffer (Unspecified)
system.caches.controllers8.responseFromMemory.m_stall_time   999.955775                       # Average number of cycles messages are stalled in this MB (Unspecified)
system.caches.controllers8.responseToCache.m_buf_msgs     0.005512                       # Average number of messages in buffer (Unspecified)
system.caches.controllers8.responseToCache.m_stall_time  8999.586531                       # Average number of cycles messages are stalled in this MB (Unspecified)
system.caches.controllers8.xyzCacheMemory.m_demand_hits            0                       # Number of cache demand hits (Unspecified)
system.caches.controllers8.xyzCacheMemory.m_demand_misses            0                       # Number of cache demand misses (Unspecified)
system.caches.controllers8.xyzCacheMemory.m_demand_accesses            0                       # Number of cache demand accesses (Unspecified)
system.caches.controllers8.xyzStatsObject.power_state.pwrStateResidencyTicks::UNDEFINED   5245863001                       # Cumulative time (in ticks) in various power states (Tick)
system.caches.network.msg_count.Control        286971                       (Unspecified)
system.caches.network.msg_byte.Control        2295768                       (Unspecified)
system.caches.network.msg_count.Data           251176                       (Unspecified)
system.caches.network.msg_byte.Data          18084672                       (Unspecified)
system.caches.network.msg_count.Response_Data         6222                       (Unspecified)
system.caches.network.msg_byte.Response_Data       447984                       (Unspecified)
system.caches.network.int_link_buffers102.m_buf_msgs     0.001077                       # Average number of messages in buffer (Unspecified)
system.caches.network.int_link_buffers102.m_stall_time  2998.603471                       # Average number of cycles messages are stalled in this MB (Unspecified)
system.caches.network.int_link_buffers103.m_buf_msgs     0.002115                       # Average number of messages in buffer (Unspecified)
system.caches.network.int_link_buffers103.m_stall_time  2999.784973                       # Average number of cycles messages are stalled in this MB (Unspecified)
system.caches.network.int_link_buffers107.m_buf_msgs     0.000566                       # Average number of messages in buffer (Unspecified)
system.caches.network.int_link_buffers107.m_stall_time  2992.088623                       # Average number of cycles messages are stalled in this MB (Unspecified)
system.caches.network.int_link_buffers11.m_buf_msgs     0.003112                       # Average number of messages in buffer (Unspecified)
system.caches.network.int_link_buffers11.m_stall_time  4814.080353                       # Average number of cycles messages are stalled in this MB (Unspecified)
system.caches.network.int_link_buffers114.m_buf_msgs     0.000545                       # Average number of messages in buffer (Unspecified)
system.caches.network.int_link_buffers114.m_stall_time  2996.108934                       # Average number of cycles messages are stalled in this MB (Unspecified)
system.caches.network.int_link_buffers12.m_buf_msgs     0.001057                       # Average number of messages in buffer (Unspecified)
system.caches.network.int_link_buffers12.m_stall_time  2996.916999                       # Average number of cycles messages are stalled in this MB (Unspecified)
system.caches.network.int_link_buffers121.m_buf_msgs     0.000580                       # Average number of messages in buffer (Unspecified)
system.caches.network.int_link_buffers121.m_stall_time  2998.597752                       # Average number of cycles messages are stalled in this MB (Unspecified)
system.caches.network.int_link_buffers126.m_buf_msgs     0.932321                       # Average number of messages in buffer (Unspecified)
system.caches.network.int_link_buffers126.m_stall_time 479304.509852                       # Average number of cycles messages are stalled in this MB (Unspecified)
system.caches.network.int_link_buffers137.m_buf_msgs     0.001051                       # Average number of messages in buffer (Unspecified)
system.caches.network.int_link_buffers137.m_stall_time  2998.091067                       # Average number of cycles messages are stalled in this MB (Unspecified)
system.caches.network.int_link_buffers138.m_buf_msgs     0.002109                       # Average number of messages in buffer (Unspecified)
system.caches.network.int_link_buffers138.m_stall_time  2999.711773                       # Average number of cycles messages are stalled in this MB (Unspecified)
system.caches.network.int_link_buffers142.m_buf_msgs     0.000558                       # Average number of messages in buffer (Unspecified)
system.caches.network.int_link_buffers142.m_stall_time  2995.889332                       # Average number of cycles messages are stalled in this MB (Unspecified)
system.caches.network.int_link_buffers149.m_buf_msgs     0.000572                       # Average number of messages in buffer (Unspecified)
system.caches.network.int_link_buffers149.m_stall_time  2994.352121                       # Average number of cycles messages are stalled in this MB (Unspecified)
system.caches.network.int_link_buffers156.m_buf_msgs     0.000550                       # Average number of messages in buffer (Unspecified)
system.caches.network.int_link_buffers156.m_stall_time  2998.085348                       # Average number of cycles messages are stalled in this MB (Unspecified)
system.caches.network.int_link_buffers161.m_buf_msgs     0.932189                       # Average number of messages in buffer (Unspecified)
system.caches.network.int_link_buffers161.m_stall_time 479238.279381                       # Average number of cycles messages are stalled in this MB (Unspecified)
system.caches.network.int_link_buffers169.m_buf_msgs     0.001815                       # Average number of messages in buffer (Unspecified)
system.caches.network.int_link_buffers169.m_stall_time  2997.215520                       # Average number of cycles messages are stalled in this MB (Unspecified)
system.caches.network.int_link_buffers170.m_buf_msgs     0.000153                       # Average number of messages in buffer (Unspecified)
system.caches.network.int_link_buffers170.m_stall_time 10998.685250                       # Average number of cycles messages are stalled in this MB (Unspecified)
system.caches.network.int_link_buffers176.m_buf_msgs     0.001820                       # Average number of messages in buffer (Unspecified)
system.caches.network.int_link_buffers176.m_stall_time  2996.922718                       # Average number of cycles messages are stalled in this MB (Unspecified)
system.caches.network.int_link_buffers177.m_buf_msgs     0.000152                       # Average number of messages in buffer (Unspecified)
system.caches.network.int_link_buffers177.m_stall_time 10999.490456                       # Average number of cycles messages are stalled in this MB (Unspecified)
system.caches.network.int_link_buffers18.m_buf_msgs     0.003140                       # Average number of messages in buffer (Unspecified)
system.caches.network.int_link_buffers18.m_stall_time  4815.897021                       # Average number of cycles messages are stalled in this MB (Unspecified)
system.caches.network.int_link_buffers183.m_buf_msgs     0.001817                       # Average number of messages in buffer (Unspecified)
system.caches.network.int_link_buffers183.m_stall_time  2998.606330                       # Average number of cycles messages are stalled in this MB (Unspecified)
system.caches.network.int_link_buffers184.m_buf_msgs     0.000155                       # Average number of messages in buffer (Unspecified)
system.caches.network.int_link_buffers184.m_stall_time 10999.222054                       # Average number of cycles messages are stalled in this MB (Unspecified)
system.caches.network.int_link_buffers19.m_buf_msgs     0.001058                       # Average number of messages in buffer (Unspecified)
system.caches.network.int_link_buffers19.m_stall_time  2998.600612                       # Average number of cycles messages are stalled in this MB (Unspecified)
system.caches.network.int_link_buffers190.m_buf_msgs     0.001813                       # Average number of messages in buffer (Unspecified)
system.caches.network.int_link_buffers190.m_stall_time  2998.093927                       # Average number of cycles messages are stalled in this MB (Unspecified)
system.caches.network.int_link_buffers191.m_buf_msgs     0.000153                       # Average number of messages in buffer (Unspecified)
system.caches.network.int_link_buffers191.m_stall_time 10998.953652                       # Average number of cycles messages are stalled in this MB (Unspecified)
system.caches.network.int_link_buffers25.m_buf_msgs     0.003155                       # Average number of messages in buffer (Unspecified)
system.caches.network.int_link_buffers25.m_stall_time  4864.695475                       # Average number of cycles messages are stalled in this MB (Unspecified)
system.caches.network.int_link_buffers26.m_buf_msgs     0.001029                       # Average number of messages in buffer (Unspecified)
system.caches.network.int_link_buffers26.m_stall_time  2998.088208                       # Average number of cycles messages are stalled in this MB (Unspecified)
system.caches.network.int_link_buffers32.m_buf_msgs     0.001084                       # Average number of messages in buffer (Unspecified)
system.caches.network.int_link_buffers32.m_stall_time  2997.212661                       # Average number of cycles messages are stalled in this MB (Unspecified)
system.caches.network.int_link_buffers33.m_buf_msgs     0.002105                       # Average number of messages in buffer (Unspecified)
system.caches.network.int_link_buffers33.m_stall_time  2999.638572                       # Average number of cycles messages are stalled in this MB (Unspecified)
system.caches.network.int_link_buffers37.m_buf_msgs     0.000572                       # Average number of messages in buffer (Unspecified)
system.caches.network.int_link_buffers37.m_stall_time  2996.401736                       # Average number of cycles messages are stalled in this MB (Unspecified)
system.caches.network.int_link_buffers4.m_buf_msgs     0.003115                       # Average number of messages in buffer (Unspecified)
system.caches.network.int_link_buffers4.m_stall_time  4796.947232                       # Average number of cycles messages are stalled in this MB (Unspecified)
system.caches.network.int_link_buffers44.m_buf_msgs     0.000569                       # Average number of messages in buffer (Unspecified)
system.caches.network.int_link_buffers44.m_stall_time  2997.206942                       # Average number of cycles messages are stalled in this MB (Unspecified)
system.caches.network.int_link_buffers5.m_buf_msgs     0.001066                       # Average number of messages in buffer (Unspecified)
system.caches.network.int_link_buffers5.m_stall_time  2997.209801                       # Average number of cycles messages are stalled in this MB (Unspecified)
system.caches.network.int_link_buffers51.m_buf_msgs     0.000547                       # Average number of messages in buffer (Unspecified)
system.caches.network.int_link_buffers51.m_stall_time  2993.034511                       # Average number of cycles messages are stalled in this MB (Unspecified)
system.caches.network.int_link_buffers56.m_buf_msgs     0.932641                       # Average number of messages in buffer (Unspecified)
system.caches.network.int_link_buffers56.m_stall_time 479465.114329                       # Average number of cycles messages are stalled in this MB (Unspecified)
system.caches.network.int_link_buffers67.m_buf_msgs     0.001075                       # Average number of messages in buffer (Unspecified)
system.caches.network.int_link_buffers67.m_stall_time  2996.919859                       # Average number of cycles messages are stalled in this MB (Unspecified)
system.caches.network.int_link_buffers68.m_buf_msgs     0.002097                       # Average number of messages in buffer (Unspecified)
system.caches.network.int_link_buffers68.m_stall_time  2999.858174                       # Average number of cycles messages are stalled in this MB (Unspecified)
system.caches.network.int_link_buffers72.m_buf_msgs     0.000567                       # Average number of messages in buffer (Unspecified)
system.caches.network.int_link_buffers72.m_stall_time  2992.961311                       # Average number of cycles messages are stalled in this MB (Unspecified)
system.caches.network.int_link_buffers79.m_buf_msgs     0.000568                       # Average number of messages in buffer (Unspecified)
system.caches.network.int_link_buffers79.m_stall_time  2996.914140                       # Average number of cycles messages are stalled in this MB (Unspecified)
system.caches.network.int_link_buffers86.m_buf_msgs     0.000556                       # Average number of messages in buffer (Unspecified)
system.caches.network.int_link_buffers86.m_stall_time  2995.376928                       # Average number of cycles messages are stalled in this MB (Unspecified)
system.caches.network.int_link_buffers91.m_buf_msgs     0.932642                       # Average number of messages in buffer (Unspecified)
system.caches.network.int_link_buffers91.m_stall_time 479467.647557                       # Average number of cycles messages are stalled in this MB (Unspecified)
system.caches.network.power_state.pwrStateResidencyTicks::UNDEFINED   5245863001                       # Cumulative time (in ticks) in various power states (Tick)
system.caches.network.routers0.percent_links_utilized     1.020366                       (Unspecified)
system.caches.network.routers0.msg_count.Control::4        16729                       (Unspecified)
system.caches.network.routers0.msg_bytes.Control::4       133832                       (Unspecified)
system.caches.network.routers0.msg_count.Data::4         5296                       (Unspecified)
system.caches.network.routers0.msg_count.Data::5        16635                       (Unspecified)
system.caches.network.routers0.msg_bytes.Data::4       381312                       (Unspecified)
system.caches.network.routers0.msg_bytes.Data::5      1197720                       (Unspecified)
system.caches.network.routers0.port_buffers10.m_buf_msgs     0.007269                       # Average number of messages in buffer (Unspecified)
system.caches.network.routers0.port_buffers10.m_stall_time  3796.948566                       # Average number of cycles messages are stalled in this MB (Unspecified)
system.caches.network.routers0.port_buffers11.m_buf_msgs     0.001066                       # Average number of messages in buffer (Unspecified)
system.caches.network.routers0.port_buffers11.m_stall_time  1998.140249                       # Average number of cycles messages are stalled in this MB (Unspecified)
system.caches.network.routers0.port_buffers4.m_buf_msgs     0.001084                       # Average number of messages in buffer (Unspecified)
system.caches.network.routers0.port_buffers4.m_stall_time  3996.282785                       # Average number of cycles messages are stalled in this MB (Unspecified)
system.caches.network.routers0.port_buffers5.m_buf_msgs     0.002105                       # Average number of messages in buffer (Unspecified)
system.caches.network.routers0.port_buffers5.m_stall_time  3999.517334                       # Average number of cycles messages are stalled in this MB (Unspecified)
system.caches.network.routers0.power_state.pwrStateResidencyTicks::UNDEFINED   5245863001                       # Cumulative time (in ticks) in various power states (Tick)
system.caches.network.routers0.throttle00.link_utilization     1.001551                       (Unspecified)
system.caches.network.routers0.throttle00.msg_count.Control::4         5684                       (Unspecified)
system.caches.network.routers0.throttle00.msg_bytes.Control::4        45472                       (Unspecified)
system.caches.network.routers0.throttle00.msg_count.Data::5        11044                       (Unspecified)
system.caches.network.routers0.throttle00.msg_bytes.Data::5       795168                       (Unspecified)
system.caches.network.routers0.throttle01.link_utilization     1.039181                       (Unspecified)
[...]
system.caches.controllers2.xyzStatsObjectlatency::underflows            0      0.00%      0.00% # Mem access latency (Unspecified)
system.caches.controllers2.xyzStatsObjectlatency::0-49999        11097    100.00%    100.00% # Mem access latency (Unspecified)
system.caches.controllers2.xyzStatsObjectlatency::50000-99999            0      0.00%    100.00% # Mem access latency (Unspecified)
system.caches.controllers2.xyzStatsObjectlatency::100000            0      0.00%    100.00% # Mem access latency (Unspecified)
system.caches.controllers2.xyzStatsObjectlatency::overflows            0      0.00%    100.00% # Mem access latency (Unspecified)
system.caches.controllers2.xyzStatsObjectlatency::min_value           10                       # Mem access latency (Unspecified)
system.caches.controllers2.xyzStatsObjectlatency::max_value         1032                       # Mem access latency (Unspecified)
system.caches.controllers2.xyzStatsObjectlatency::total        11097                       # Mem access latency (Unspecified)
system.caches.controllers3.xyzStatsObject.total_put            0                       # Total number of put (PutM + PutS) (Unspecified)
system.caches.controllers3.xyzStatsObject.total_put_as_wt            0                       # Total number of put as write through (Unspecified)
system.caches.controllers3.xyzStatsObject.total_putm            0                       # Total number of PutM (Unspecified)
system.caches.controllers3.xyzStatsObject.total_putm_as_wt            0                       # Total number of PutM as write through (Unspecified)
system.caches.controllers3.xyzStatsObject.total_puts            0                       # Total number of PutS (Unspecified)
system.caches.controllers3.xyzStatsObject.total_puts_as_wt            0                       # Total number of PutS as write through (Unspecified)
system.caches.controllers3.xyzStatsObject.total_repl            0                       # Total Replacement (Unspecified)
system.caches.controllers3.xyzStatsObject.total_repl_llc            0                       # Total Replacement of LLC line (Unspecified)
system.caches.controllers3.xyzStatsObject.total_repl_owned            0                       # Total Replacement of owned line (Unspecified)
system.caches.controllers3.xyzStatsObject.total_repl_shared            0                       # Total Replacement of shared line (Unspecified)
system.caches.controllers3.xyzStatsObject.wt_putRatio          nan                       # WT / Put (Unspecified)
system.caches.controllers3.xyzStatsObject.wt_putmRatio          nan                       # PutM WT / PutM (Unspecified)
system.caches.controllers3.xyzStatsObject.wt_putsRatio          nan                       # PutS WT / PutS (Unspecified)
system.caches.controllers3.xyzStatsObjectlatency::samples        11063                       # Mem access latency (Unspecified)
system.caches.controllers3.xyzStatsObjectlatency::mean   471.906626                       # Mem access latency (Unspecified)
system.caches.controllers3.xyzStatsObjectlatency::stdev   221.174980                       # Mem access latency (Unspecified)
system.caches.controllers3.xyzStatsObjectlatency::underflows            0      0.00%      0.00% # Mem access latency (Unspecified)
system.caches.controllers3.xyzStatsObjectlatency::0-49999        11063    100.00%    100.00% # Mem access latency (Unspecified)
system.caches.controllers3.xyzStatsObjectlatency::50000-99999            0      0.00%    100.00% # Mem access latency (Unspecified)
system.caches.controllers3.xyzStatsObjectlatency::100000            0      0.00%    100.00% # Mem access latency (Unspecified)
system.caches.controllers3.xyzStatsObjectlatency::overflows            0      0.00%    100.00% # Mem access latency (Unspecified)
system.caches.controllers3.xyzStatsObjectlatency::min_value           10                       # Mem access latency (Unspecified)
system.caches.controllers3.xyzStatsObjectlatency::max_value         1032                       # Mem access latency (Unspecified)
system.caches.controllers3.xyzStatsObjectlatency::total        11063                       # Mem access latency (Unspecified)
system.caches.controllers4.xyzStatsObject.total_put            0                       # Total number of put (PutM + PutS) (Unspecified)
system.caches.controllers4.xyzStatsObject.total_put_as_wt            0                       # Total number of put as write through (Unspecified)
system.caches.controllers4.xyzStatsObject.total_putm            0                       # Total number of PutM (Unspecified)
system.caches.controllers4.xyzStatsObject.total_putm_as_wt            0                       # Total number of PutM as write through (Unspecified)
system.caches.controllers4.xyzStatsObject.total_puts            0                       # Total number of PutS (Unspecified)
system.caches.controllers4.xyzStatsObject.total_puts_as_wt            0                       # Total number of PutS as write through (Unspecified)
system.caches.controllers4.xyzStatsObject.total_repl            0                       # Total Replacement (Unspecified)
system.caches.controllers4.xyzStatsObject.total_repl_llc            0                       # Total Replacement of LLC line (Unspecified)
system.caches.controllers4.xyzStatsObject.total_repl_owned            0                       # Total Replacement of owned line (Unspecified)
system.caches.controllers4.xyzStatsObject.total_repl_shared            0                       # Total Replacement of shared line (Unspecified)
system.caches.controllers4.xyzStatsObject.wt_putRatio          nan                       # WT / Put (Unspecified)
system.caches.controllers4.xyzStatsObject.wt_putmRatio          nan                       # PutM WT / PutM (Unspecified)
system.caches.controllers4.xyzStatsObject.wt_putsRatio          nan                       # PutS WT / PutS (Unspecified)
system.caches.controllers4.xyzStatsObjectlatency::samples         9579                       # Mem access latency (Unspecified)
system.caches.controllers4.xyzStatsObjectlatency::mean   498.003027                       # Mem access latency (Unspecified)
system.caches.controllers4.xyzStatsObjectlatency::stdev    16.694118                       # Mem access latency (Unspecified)
system.caches.controllers4.xyzStatsObjectlatency::underflows            0      0.00%      0.00% # Mem access latency (Unspecified)
system.caches.controllers4.xyzStatsObjectlatency::0-49999         9579    100.00%    100.00% # Mem access latency (Unspecified)
system.caches.controllers4.xyzStatsObjectlatency::50000-99999            0      0.00%    100.00% # Mem access latency (Unspecified)
system.caches.controllers4.xyzStatsObjectlatency::100000            0      0.00%    100.00% # Mem access latency (Unspecified)
system.caches.controllers4.xyzStatsObjectlatency::overflows            0      0.00%    100.00% # Mem access latency (Unspecified)
system.caches.controllers4.xyzStatsObjectlatency::min_value          401                       # Mem access latency (Unspecified)
system.caches.controllers4.xyzStatsObjectlatency::max_value          901                       # Mem access latency (Unspecified)
system.caches.controllers4.xyzStatsObjectlatency::total         9579                       # Mem access latency (Unspecified)
system.caches.controllers5.xyzStatsObject.total_put            0                       # Total number of put (PutM + PutS) (Unspecified)
system.caches.controllers5.xyzStatsObject.total_put_as_wt            0                       # Total number of put as write through (Unspecified)
system.caches.controllers5.xyzStatsObject.total_putm            0                       # Total number of PutM (Unspecified)
system.caches.controllers5.xyzStatsObject.total_putm_as_wt            0                       # Total number of PutM as write through (Unspecified)
system.caches.controllers5.xyzStatsObject.total_puts            0                       # Total number of PutS (Unspecified)
system.caches.controllers5.xyzStatsObject.total_puts_as_wt            0                       # Total number of PutS as write through (Unspecified)
system.caches.controllers5.xyzStatsObject.total_repl            0                       # Total Replacement (Unspecified)
system.caches.controllers5.xyzStatsObject.total_repl_llc            0                       # Total Replacement of LLC line (Unspecified)
system.caches.controllers5.xyzStatsObject.total_repl_owned            0                       # Total Replacement of owned line (Unspecified)
system.caches.controllers5.xyzStatsObject.total_repl_shared            0                       # Total Replacement of shared line (Unspecified)
system.caches.controllers5.xyzStatsObject.wt_putRatio          nan                       # WT / Put (Unspecified)
system.caches.controllers5.xyzStatsObject.wt_putmRatio          nan                       # PutM WT / PutM (Unspecified)
system.caches.controllers5.xyzStatsObject.wt_putsRatio          nan                       # PutS WT / PutS (Unspecified)
system.caches.controllers5.xyzStatsObjectlatency::samples         9572                       # Mem access latency (Unspecified)
system.caches.controllers5.xyzStatsObjectlatency::mean   497.930004                       # Mem access latency (Unspecified)
system.caches.controllers5.xyzStatsObjectlatency::stdev    16.263532                       # Mem access latency (Unspecified)
system.caches.controllers5.xyzStatsObjectlatency::underflows            0      0.00%      0.00% # Mem access latency (Unspecified)
system.caches.controllers5.xyzStatsObjectlatency::0-49999         9572    100.00%    100.00% # Mem access latency (Unspecified)
system.caches.controllers5.xyzStatsObjectlatency::50000-99999            0      0.00%    100.00% # Mem access latency (Unspecified)
system.caches.controllers5.xyzStatsObjectlatency::100000            0      0.00%    100.00% # Mem access latency (Unspecified)
system.caches.controllers5.xyzStatsObjectlatency::overflows            0      0.00%    100.00% # Mem access latency (Unspecified)
system.caches.controllers5.xyzStatsObjectlatency::min_value          238                       # Mem access latency (Unspecified)
system.caches.controllers5.xyzStatsObjectlatency::max_value          891                       # Mem access latency (Unspecified)
system.caches.controllers5.xyzStatsObjectlatency::total         9572                       # Mem access latency (Unspecified)
system.caches.controllers6.xyzStatsObject.total_put            0                       # Total number of put (PutM + PutS) (Unspecified)
system.caches.controllers6.xyzStatsObject.total_put_as_wt            0                       # Total number of put as write through (Unspecified)
system.caches.controllers6.xyzStatsObject.total_putm            0                       # Total number of PutM (Unspecified)
system.caches.controllers6.xyzStatsObject.total_putm_as_wt            0                       # Total number of PutM as write through (Unspecified)
system.caches.controllers6.xyzStatsObject.total_puts            0                       # Total number of PutS (Unspecified)
system.caches.controllers6.xyzStatsObject.total_puts_as_wt            0                       # Total number of PutS as write through (Unspecified)
system.caches.controllers6.xyzStatsObject.total_repl            0                       # Total Replacement (Unspecified)
system.caches.controllers6.xyzStatsObject.total_repl_llc            0                       # Total Replacement of LLC line (Unspecified)
system.caches.controllers6.xyzStatsObject.total_repl_owned            0                       # Total Replacement of owned line (Unspecified)
system.caches.controllers6.xyzStatsObject.total_repl_shared            0                       # Total Replacement of shared line (Unspecified)
system.caches.controllers6.xyzStatsObject.wt_putRatio          nan                       # WT / Put (Unspecified)
system.caches.controllers6.xyzStatsObject.wt_putmRatio          nan                       # PutM WT / PutM (Unspecified)
system.caches.controllers6.xyzStatsObject.wt_putsRatio          nan                       # PutS WT / PutS (Unspecified)
system.caches.controllers6.xyzStatsObjectlatency::samples         9578                       # Mem access latency (Unspecified)
system.caches.controllers6.xyzStatsObjectlatency::mean   497.937670                       # Mem access latency (Unspecified)
system.caches.controllers6.xyzStatsObjectlatency::stdev    17.851363                       # Mem access latency (Unspecified)
system.caches.controllers6.xyzStatsObjectlatency::underflows            0      0.00%      0.00% # Mem access latency (Unspecified)
system.caches.controllers6.xyzStatsObjectlatency::0-49999         9578    100.00%    100.00% # Mem access latency (Unspecified)
system.caches.controllers6.xyzStatsObjectlatency::50000-99999            0      0.00%    100.00% # Mem access latency (Unspecified)
system.caches.controllers6.xyzStatsObjectlatency::100000            0      0.00%    100.00% # Mem access latency (Unspecified)
system.caches.controllers6.xyzStatsObjectlatency::overflows            0      0.00%    100.00% # Mem access latency (Unspecified)
system.caches.controllers6.xyzStatsObjectlatency::min_value          366                       # Mem access latency (Unspecified)
system.caches.controllers6.xyzStatsObjectlatency::max_value          901                       # Mem access latency (Unspecified)
system.caches.controllers6.xyzStatsObjectlatency::total         9578                       # Mem access latency (Unspecified)
system.caches.controllers7.xyzStatsObject.total_put            0                       # Total number of put (PutM + PutS) (Unspecified)
system.caches.controllers7.xyzStatsObject.total_put_as_wt            0                       # Total number of put as write through (Unspecified)
system.caches.controllers7.xyzStatsObject.total_putm            0                       # Total number of PutM (Unspecified)
system.caches.controllers7.xyzStatsObject.total_putm_as_wt            0                       # Total number of PutM as write through (Unspecified)
system.caches.controllers7.xyzStatsObject.total_puts            0                       # Total number of PutS (Unspecified)
system.caches.controllers7.xyzStatsObject.total_puts_as_wt            0                       # Total number of PutS as write through (Unspecified)
system.caches.controllers7.xyzStatsObject.total_repl            0                       # Total Replacement (Unspecified)
system.caches.controllers7.xyzStatsObject.total_repl_llc            0                       # Total Replacement of LLC line (Unspecified)
system.caches.controllers7.xyzStatsObject.total_repl_owned            0                       # Total Replacement of owned line (Unspecified)
system.caches.controllers7.xyzStatsObject.total_repl_shared            0                       # Total Replacement of shared line (Unspecified)
system.caches.controllers7.xyzStatsObject.wt_putRatio          nan                       # WT / Put (Unspecified)
system.caches.controllers7.xyzStatsObject.wt_putmRatio          nan                       # PutM WT / PutM (Unspecified)
system.caches.controllers7.xyzStatsObject.wt_putsRatio          nan                       # PutS WT / PutS (Unspecified)
system.caches.controllers7.xyzStatsObjectlatency::samples         9545                       # Mem access latency (Unspecified)
system.caches.controllers7.xyzStatsObjectlatency::mean   497.803457                       # Mem access latency (Unspecified)
system.caches.controllers7.xyzStatsObjectlatency::stdev    16.002342                       # Mem access latency (Unspecified)
system.caches.controllers7.xyzStatsObjectlatency::underflows            0      0.00%      0.00% # Mem access latency (Unspecified)
system.caches.controllers7.xyzStatsObjectlatency::0-49999         9545    100.00%    100.00% # Mem access latency (Unspecified)
system.caches.controllers7.xyzStatsObjectlatency::50000-99999            0      0.00%    100.00% # Mem access latency (Unspecified)
system.caches.controllers7.xyzStatsObjectlatency::100000            0      0.00%    100.00% # Mem access latency (Unspecified)
system.caches.controllers7.xyzStatsObjectlatency::overflows            0      0.00%    100.00% # Mem access latency (Unspecified)
system.caches.controllers7.xyzStatsObjectlatency::min_value          391                       # Mem access latency (Unspecified)
system.caches.controllers7.xyzStatsObjectlatency::max_value          901                       # Mem access latency (Unspecified)
system.caches.controllers7.xyzStatsObjectlatency::total         9545                       # Mem access latency (Unspecified)
system.caches.controllers8.xyzStatsObject.total_put         2709                       # Total number of put (PutM + PutS) (Unspecified)
system.caches.controllers8.xyzStatsObject.total_put_as_wt            0                       # Total number of put as write through (Unspecified)
system.caches.controllers8.xyzStatsObject.total_putm         2651                       # Total number of PutM (Unspecified)
system.caches.controllers8.xyzStatsObject.total_putm_as_wt            0                       # Total number of PutM as write through (Unspecified)
system.caches.controllers8.xyzStatsObject.total_puts           58                       # Total number of PutS (Unspecified)
system.caches.controllers8.xyzStatsObject.total_puts_as_wt            0                       # Total number of PutS as write through (Unspecified)
system.caches.controllers8.xyzStatsObject.total_repl            0                       # Total Replacement (Unspecified)
system.caches.controllers8.xyzStatsObject.total_repl_llc            0                       # Total Replacement of LLC line (Unspecified)
system.caches.controllers8.xyzStatsObject.total_repl_owned            0                       # Total Replacement of owned line (Unspecified)
system.caches.controllers8.xyzStatsObject.total_repl_shared            0                       # Total Replacement of shared line (Unspecified)
system.caches.controllers8.xyzStatsObject.wt_putRatio            0                       # WT / Put (Unspecified)
system.caches.controllers8.xyzStatsObject.wt_putmRatio            0                       # PutM WT / PutM (Unspecified)
system.caches.controllers8.xyzStatsObject.wt_putsRatio            0                       # PutS WT / PutS (Unspecified)
system.caches.controllers8.xyzStatsObjectlatency::samples            0                       # Mem access latency (Unspecified)
system.caches.controllers8.xyzStatsObjectlatency::mean          nan                       # Mem access latency (Unspecified)
system.caches.controllers8.xyzStatsObjectlatency::stdev          nan                       # Mem access latency (Unspecified)
system.caches.controllers8.xyzStatsObjectlatency::underflows            0                       # Mem access latency (Unspecified)
system.caches.controllers8.xyzStatsObjectlatency::0-49999            0                       # Mem access latency (Unspecified)
system.caches.controllers8.xyzStatsObjectlatency::50000-99999            0                       # Mem access latency (Unspecified)
system.caches.controllers8.xyzStatsObjectlatency::100000            0                       # Mem access latency (Unspecified)
system.caches.controllers8.xyzStatsObjectlatency::overflows            0                       # Mem access latency (Unspecified)
system.caches.controllers8.xyzStatsObjectlatency::min_value            0                       # Mem access latency (Unspecified)
system.caches.controllers8.xyzStatsObjectlatency::max_value            0                       # Mem access latency (Unspecified)
system.caches.controllers8.xyzStatsObjectlatency::total            0                       # Mem access latency (Unspecified)

---------- End Simulation Statistics   ----------
