
---------- Begin Simulation Statistics ----------
simSeconds                                   0.022945                       # Number of seconds simulated (Second)
simTicks                                  22945279000                       # Number of ticks simulated (Tick)
finalTick                                 22945279000                       # Number of ticks from beginning of simulation (restored from checkpoints and never reset) (Tick)
simFreq                                  1000000000000                       # The number of ticks per simulated second ((Tick/Second))
hostSeconds                                     35.34                       # Real time elapsed on the host (Second)
hostTickRate                                649267129                       # The number of ticks simulated per host second (ticks/s) ((Tick/Second))
hostMemory                                    5206876                       # Number of bytes of host memory used (Byte)
simInsts                                      3051182                       # Number of instructions simulated (Count)
simOps                                        5092062                       # Number of ops (including micro ops) simulated (Count)
hostInstRate                                    86332                       # Simulator instruction rate (inst/s) ((Count/Second))
hostOpRate                                     144077                       # Simulator op (including micro ops) rate (op/s) ((Count/Second))
system.caches.m_outstandReqHistSeqr::bucket_size            1                       (Unspecified)
system.caches.m_outstandReqHistSeqr::max_bucket            9                       (Unspecified)
system.caches.m_outstandReqHistSeqr::samples      5193459                       (Unspecified)
system.caches.m_outstandReqHistSeqr::mean            1                       (Unspecified)
system.caches.m_outstandReqHistSeqr::gmean            1                       (Unspecified)
system.caches.m_outstandReqHistSeqr      |           0      0.00%      0.00% |     5193459    100.00%    100.00% |           0      0.00%    100.00% |           0      0.00%    100.00% |           0      0.00%    100.00% |           0      0.00%    100.00% |           0      0.00%    100.00% |           0      0.00%    100.00% |           0      0.00%    100.00% |           0      0.00%    100.00% (Unspecified)
system.caches.m_outstandReqHistSeqr::total      5193459                       (Unspecified)
system.caches.m_latencyHistSeqr::bucket_size          128                       (Unspecified)
system.caches.m_latencyHistSeqr::max_bucket         1279                       (Unspecified)
system.caches.m_latencyHistSeqr::samples      5193459                       (Unspecified)
system.caches.m_latencyHistSeqr::mean        3.963014                       (Unspecified)
system.caches.m_latencyHistSeqr::gmean       1.083785                       (Unspecified)
system.caches.m_latencyHistSeqr::stdev      28.968079                       (Unspecified)
system.caches.m_latencyHistSeqr          |     5139117     98.95%     98.95% |       24315      0.47%     99.42% |       27374      0.53%     99.95% |        1717      0.03%     99.98% |         731      0.01%    100.00% |         187      0.00%    100.00% |          16      0.00%    100.00% |           2      0.00%    100.00% |           0      0.00%    100.00% |           0      0.00%    100.00% (Unspecified)
system.caches.m_latencyHistSeqr::total        5193459                       (Unspecified)
system.caches.m_hitLatencyHistSeqr::bucket_size            1                       (Unspecified)
system.caches.m_hitLatencyHistSeqr::max_bucket            9                       (Unspecified)
system.caches.m_hitLatencyHistSeqr::samples      5094534                       (Unspecified)
system.caches.m_hitLatencyHistSeqr::mean            1                       (Unspecified)
system.caches.m_hitLatencyHistSeqr::gmean            1                       (Unspecified)
system.caches.m_hitLatencyHistSeqr       |           0      0.00%      0.00% |     5094534    100.00%    100.00% |           0      0.00%    100.00% |           0      0.00%    100.00% |           0      0.00%    100.00% |           0      0.00%    100.00% |           0      0.00%    100.00% |           0      0.00%    100.00% |           0      0.00%    100.00% |           0      0.00%    100.00% (Unspecified)
system.caches.m_hitLatencyHistSeqr::total      5094534                       (Unspecified)
system.caches.m_missLatencyHistSeqr::bucket_size          128                       (Unspecified)
system.caches.m_missLatencyHistSeqr::max_bucket         1279                       (Unspecified)
system.caches.m_missLatencyHistSeqr::samples        98925                       (Unspecified)
system.caches.m_missLatencyHistSeqr::mean   156.555138                       (Unspecified)
system.caches.m_missLatencyHistSeqr::gmean    68.307658                       (Unspecified)
system.caches.m_missLatencyHistSeqr::stdev   142.541864                       (Unspecified)
system.caches.m_missLatencyHistSeqr      |       44583     45.07%     45.07% |       24315     24.58%     69.65% |       27374     27.67%     97.32% |        1717      1.74%     99.05% |         731      0.74%     99.79% |         187      0.19%     99.98% |          16      0.02%    100.00% |           2      0.00%    100.00% |           0      0.00%    100.00% |           0      0.00%    100.00% (Unspecified)
system.caches.m_missLatencyHistSeqr::total        98925                       (Unspecified)
system.caches.L0Cache_Controller.Load    |      724981     89.24%     89.24% |       30073      3.70%     92.94% |       28957      3.56%     96.51% |       28357      3.49%    100.00% (Unspecified)
system.caches.L0Cache_Controller.Load::total       812368                       (Unspecified)
system.caches.L0Cache_Controller.Ifetch  |     3788786     93.68%     93.68% |       88815      2.20%     95.87% |       84602      2.09%     97.97% |       82256      2.03%    100.00% (Unspecified)
system.caches.L0Cache_Controller.Ifetch::total      4044459                       (Unspecified)
system.caches.L0Cache_Controller.Store   |      310148     92.13%     92.13% |        9346      2.78%     94.91% |        8728      2.59%     97.50% |        8410      2.50%    100.00% (Unspecified)
system.caches.L0Cache_Controller.Store::total       336632                       (Unspecified)
system.caches.L0Cache_Controller.Replacement |       74759     91.26%     91.26% |        2714      3.31%     94.57% |        2383      2.91%     97.48% |        2067      2.52%    100.00% (Unspecified)
system.caches.L0Cache_Controller.Replacement::total        81923                       (Unspecified)
system.caches.L0Cache_Controller.Inv     |       42221     89.68%     89.68% |        1762      3.74%     93.42% |        1600      3.40%     96.82% |        1496      3.18%    100.00% (Unspecified)
system.caches.L0Cache_Controller.Inv::total        47079                       (Unspecified)
system.caches.L0Cache_Controller.Data    |       88064     91.69%     91.69% |        2982      3.10%     94.79% |        2631      2.74%     97.53% |        2370      2.47%    100.00% (Unspecified)
system.caches.L0Cache_Controller.Data::total        96047                       (Unspecified)
system.caches.L0Cache_Controller.ExData  |        2711     94.20%     94.20% |          79      2.74%     96.94% |          56      1.95%     98.89% |          32      1.11%    100.00% (Unspecified)
system.caches.L0Cache_Controller.ExData::total         2878                       (Unspecified)
system.caches.L0Cache_Controller.I.Load  |       52484     91.55%     91.55% |        1838      3.21%     94.76% |        1584      2.76%     97.52% |        1420      2.48%    100.00% (Unspecified)
system.caches.L0Cache_Controller.I.Load::total        57326                       (Unspecified)
system.caches.L0Cache_Controller.I.Ifetch |       23816     95.90%     95.90% |         425      1.71%     97.61% |         343      1.38%     98.99% |         251      1.01%    100.00% (Unspecified)
system.caches.L0Cache_Controller.I.Ifetch::total        24835                       (Unspecified)
system.caches.L0Cache_Controller.I.Store |       13383     85.73%     85.73% |         771      4.94%     90.67% |         741      4.75%     95.42% |         715      4.58%    100.00% (Unspecified)
system.caches.L0Cache_Controller.I.Store::total        15610                       (Unspecified)
system.caches.L0Cache_Controller.I.Inv   |       27419     86.51%     86.51% |        1555      4.91%     91.42% |        1427      4.50%     95.92% |        1292      4.08%    100.00% (Unspecified)
system.caches.L0Cache_Controller.I.Inv::total        31693                       (Unspecified)
system.caches.L0Cache_Controller.IS_D.Data |       73589     92.82%     92.82% |        2184      2.75%     95.57% |        1871      2.36%     97.93% |        1639      2.07%    100.00% (Unspecified)
system.caches.L0Cache_Controller.IS_D.Data::total        79283                       (Unspecified)
system.caches.L0Cache_Controller.IS_D.ExData |        2711     94.20%     94.20% |          79      2.74%     96.94% |          56      1.95%     98.89% |          32      1.11%    100.00% (Unspecified)
system.caches.L0Cache_Controller.IS_D.ExData::total         2878                       (Unspecified)
system.caches.L0Cache_Controller.IM_D.Data |       14475     86.35%     86.35% |         798      4.76%     91.11% |         760      4.53%     95.64% |         731      4.36%    100.00% (Unspecified)
system.caches.L0Cache_Controller.IM_D.Data::total        16764                       (Unspecified)
system.caches.L0Cache_Controller.S.Load  |      331224     94.55%     94.55% |        6691      1.91%     96.46% |        6363      1.82%     98.27% |        6056      1.73%    100.00% (Unspecified)
system.caches.L0Cache_Controller.S.Load::total       350334                       (Unspecified)
system.caches.L0Cache_Controller.S.Ifetch |     3764970     93.66%     93.66% |       88390      2.20%     95.86% |       84259      2.10%     97.96% |       82005      2.04%    100.00% (Unspecified)
system.caches.L0Cache_Controller.S.Ifetch::total      4019624                       (Unspecified)
system.caches.L0Cache_Controller.S.Store |        1092     94.63%     94.63% |          27      2.34%     96.97% |          19      1.65%     98.61% |          16      1.39%    100.00% (Unspecified)
system.caches.L0Cache_Controller.S.Store::total         1154                       (Unspecified)
system.caches.L0Cache_Controller.S.Replacement |       59712     92.33%     92.33% |        1903      2.94%     95.28% |        1630      2.52%     97.80% |        1425      2.20%    100.00% (Unspecified)
system.caches.L0Cache_Controller.S.Replacement::total        64670                       (Unspecified)
system.caches.L0Cache_Controller.S.Inv   |       12691     96.93%     96.93% |         163      1.24%     98.17% |         132      1.01%     99.18% |         107      0.82%    100.00% (Unspecified)
system.caches.L0Cache_Controller.S.Inv::total        13093                       (Unspecified)
system.caches.L0Cache_Controller.M.Load  |      341273     84.33%     84.33% |       21544      5.32%     89.65% |       21010      5.19%     94.84% |       20881      5.16%    100.00% (Unspecified)
system.caches.L0Cache_Controller.M.Load::total       404708                       (Unspecified)
system.caches.L0Cache_Controller.M.Store |      295673     92.44%     92.44% |        8548      2.67%     95.11% |        7968      2.49%     97.60% |        7679      2.40%    100.00% (Unspecified)
system.caches.L0Cache_Controller.M.Store::total       319868                       (Unspecified)
system.caches.L0Cache_Controller.M.Replacement |       15047     87.21%     87.21% |         811      4.70%     91.91% |         753      4.36%     96.28% |         642      3.72%    100.00% (Unspecified)
system.caches.L0Cache_Controller.M.Replacement::total        17253                       (Unspecified)
system.caches.L0Cache_Controller.M.Inv   |        2111     92.06%     92.06% |          44      1.92%     93.98% |          41      1.79%     95.77% |          97      4.23%    100.00% (Unspecified)
system.caches.L0Cache_Controller.M.Inv::total         2293                       (Unspecified)
system.caches.L1Cache_Controller.Load    |       76300     92.87%     92.87% |        2263      2.75%     95.62% |        1927      2.35%     97.97% |        1671      2.03%    100.00% (Unspecified)
system.caches.L1Cache_Controller.Load::total        82161                       (Unspecified)
system.caches.L1Cache_Controller.Store   |       14475     86.35%     86.35% |         798      4.76%     91.11% |         760      4.53%     95.64% |         731      4.36%    100.00% (Unspecified)
system.caches.L1Cache_Controller.Store::total        16764                       (Unspecified)
system.caches.L1Cache_Controller.PutM    |       15047     87.21%     87.21% |         811      4.70%     91.91% |         753      4.36%     96.28% |         642      3.72%    100.00% (Unspecified)
system.caches.L1Cache_Controller.PutM::total        17253                       (Unspecified)
system.caches.L1Cache_Controller.Replacement |      105373     91.22%     91.22% |        3659      3.17%     94.39% |        3431      2.97%     97.36% |        3051      2.64%    100.00% (Unspecified)
system.caches.L1Cache_Controller.Replacement::total       115514                       (Unspecified)
system.caches.L1Cache_Controller.FwdGetM |          71      3.54%      3.54% |         666     33.18%     36.72% |         593     29.55%     66.27% |         677     33.73%    100.00% (Unspecified)
system.caches.L1Cache_Controller.FwdGetM::total         2007                       (Unspecified)
system.caches.L1Cache_Controller.Inv     |           0      0.00%      0.00% |           6     31.58%     31.58% |           8     42.11%     73.68% |           5     26.32%    100.00% (Unspecified)
system.caches.L1Cache_Controller.Inv::total           19                       (Unspecified)
system.caches.L1Cache_Controller.PutAck  |       50604     91.03%     91.03% |        1809      3.25%     94.28% |        1691      3.04%     97.32% |        1488      2.68%    100.00% (Unspecified)
system.caches.L1Cache_Controller.PutAck::total        55592                       (Unspecified)
system.caches.L1Cache_Controller.DataDirNoAcks |       51543     89.00%     89.00% |        2713      4.68%     93.68% |        1885      3.25%     96.94% |        1775      3.06%    100.00% (Unspecified)
system.caches.L1Cache_Controller.DataDirNoAcks::total        57916                       (Unspecified)
system.caches.L1Cache_Controller.DataOwner |         609     32.58%     32.58% |          20      1.07%     33.65% |         647     34.62%     68.27% |         593     31.73%    100.00% (Unspecified)
system.caches.L1Cache_Controller.DataOwner::total         1869                       (Unspecified)
system.caches.L1Cache_Controller.InvAck  |          13     68.42%     68.42% |           4     21.05%     89.47% |           2     10.53%    100.00% |           0      0.00%    100.00% (Unspecified)
system.caches.L1Cache_Controller.InvAck::total           19                       (Unspecified)
system.caches.L1Cache_Controller.WB_Data |        2111     92.06%     92.06% |          44      1.92%     93.98% |          41      1.79%     95.77% |          97      4.23%    100.00% (Unspecified)
system.caches.L1Cache_Controller.WB_Data::total         2293                       (Unspecified)
system.caches.L1Cache_Controller.I.Load  |       41582     88.53%     88.53% |        1961      4.17%     92.70% |        1788      3.81%     96.51% |        1641      3.49%    100.00% (Unspecified)
system.caches.L1Cache_Controller.I.Load::total        46972                       (Unspecified)
system.caches.L1Cache_Controller.I.Store |        9316     81.06%     81.06% |         741      6.45%     87.51% |         725      6.31%     93.81% |         711      6.19%    100.00% (Unspecified)
system.caches.L1Cache_Controller.I.Store::total        11493                       (Unspecified)
system.caches.L1Cache_Controller.IS_D.DataDirNoAcks |       41579     88.61%     88.61% |        1950      4.16%     92.77% |        1770      3.77%     96.54% |        1623      3.46%    100.00% (Unspecified)
system.caches.L1Cache_Controller.IS_D.DataDirNoAcks::total        46922                       (Unspecified)
system.caches.L1Cache_Controller.IS_D.DataOwner |           3      6.00%      6.00% |          11     22.00%     28.00% |          18     36.00%     64.00% |          18     36.00%    100.00% (Unspecified)
system.caches.L1Cache_Controller.IS_D.DataOwner::total           50                       (Unspecified)
system.caches.L1Cache_Controller.IM_AD.DataDirNoAcks |        8710     90.04%     90.04% |         732      7.57%     97.60% |          96      0.99%     98.59% |         136      1.41%    100.00% (Unspecified)
system.caches.L1Cache_Controller.IM_AD.DataDirNoAcks::total         9674                       (Unspecified)
system.caches.L1Cache_Controller.IM_AD.DataOwner |         606     33.32%     33.32% |           9      0.49%     33.81% |         629     34.58%     68.39% |         575     31.61%    100.00% (Unspecified)
system.caches.L1Cache_Controller.IM_AD.DataOwner::total         1819                       (Unspecified)
system.caches.L1Cache_Controller.IM_AD.InvAck |           7     70.00%     70.00% |           1     10.00%     80.00% |           2     20.00%    100.00% |           0      0.00%    100.00% (Unspecified)
system.caches.L1Cache_Controller.IM_AD.InvAck::total           10                       (Unspecified)
system.caches.L1Cache_Controller.S.Load  |       32010     98.92%     98.92% |         234      0.72%     99.64% |         101      0.31%     99.95% |          16      0.05%    100.00% (Unspecified)
system.caches.L1Cache_Controller.S.Load::total        32361                       (Unspecified)
system.caches.L1Cache_Controller.S.Store |        1254     95.00%     95.00% |          31      2.35%     97.35% |          19      1.44%     98.79% |          16      1.21%    100.00% (Unspecified)
system.caches.L1Cache_Controller.S.Store::total         1320                       (Unspecified)
system.caches.L1Cache_Controller.S.Replacement |       40110     89.60%     89.60% |        1712      3.82%     93.42% |        1551      3.46%     96.89% |        1394      3.11%    100.00% (Unspecified)
system.caches.L1Cache_Controller.S.Replacement::total        44767                       (Unspecified)
system.caches.L1Cache_Controller.S.Inv   |           0      0.00%      0.00% |           6     31.58%     31.58% |           8     42.11%     73.68% |           5     26.32%    100.00% (Unspecified)
system.caches.L1Cache_Controller.S.Inv::total           19                       (Unspecified)
system.caches.L1Cache_Controller.SM_AD.DataDirNoAcks |        1254     95.00%     95.00% |          31      2.35%     97.35% |          19      1.44%     98.79% |          16      1.21%    100.00% (Unspecified)
system.caches.L1Cache_Controller.SM_AD.DataDirNoAcks::total         1320                       (Unspecified)
system.caches.L1Cache_Controller.SM_AD.InvAck |           6     66.67%     66.67% |           3     33.33%    100.00% |           0      0.00%    100.00% |           0      0.00%    100.00% (Unspecified)
system.caches.L1Cache_Controller.SM_AD.InvAck::total            9                       (Unspecified)
system.caches.L1Cache_Controller.M.Load  |        2708     95.76%     95.76% |          68      2.40%     98.16% |          38      1.34%     99.50% |          14      0.50%    100.00% (Unspecified)
system.caches.L1Cache_Controller.M.Load::total         2828                       (Unspecified)
system.caches.L1Cache_Controller.M.Store |        3905     98.84%     98.84% |          26      0.66%     99.49% |          16      0.40%     99.90% |           4      0.10%    100.00% (Unspecified)
system.caches.L1Cache_Controller.M.Store::total         3951                       (Unspecified)
system.caches.L1Cache_Controller.M.Replacement |       10494     96.94%     96.94% |          97      0.90%     97.84% |         140      1.29%     99.13% |          94      0.87%    100.00% (Unspecified)
system.caches.L1Cache_Controller.M.Replacement::total        10825                       (Unspecified)
system.caches.L1Cache_Controller.M.FwdGetM |          38      2.03%      2.03% |         642     34.35%     36.38% |         574     30.71%     67.09% |         615     32.91%    100.00% (Unspecified)
system.caches.L1Cache_Controller.M.FwdGetM::total         1869                       (Unspecified)
system.caches.L1Cache_Controller.M_P.PutM |       15047     87.21%     87.21% |         811      4.70%     91.91% |         753      4.36%     96.28% |         642      3.72%    100.00% (Unspecified)
system.caches.L1Cache_Controller.M_P.PutM::total        17253                       (Unspecified)
system.caches.L1Cache_Controller.M_P.Replacement |        2079     96.43%     96.43% |          20      0.93%     97.36% |          22      1.02%     98.38% |          35      1.62%    100.00% (Unspecified)
system.caches.L1Cache_Controller.M_P.Replacement::total         2156                       (Unspecified)
system.caches.L1Cache_Controller.M_P.FwdGetM |          32     23.36%     23.36% |          24     17.52%     40.88% |          19     13.87%     54.74% |          62     45.26%    100.00% (Unspecified)
system.caches.L1Cache_Controller.M_P.FwdGetM::total          137                       (Unspecified)
system.caches.L1Cache_Controller.MP_D.Replacement |        2079     96.43%     96.43% |          20      0.93%     97.36% |          22      1.02%     98.38% |          35      1.62%    100.00% (Unspecified)
system.caches.L1Cache_Controller.MP_D.Replacement::total         2156                       (Unspecified)
system.caches.L1Cache_Controller.MP_D.FwdGetM |           1    100.00%    100.00% |           0      0.00%    100.00% |           0      0.00%    100.00% |           0      0.00%    100.00% (Unspecified)
system.caches.L1Cache_Controller.MP_D.FwdGetM::total            1                       (Unspecified)
system.caches.L1Cache_Controller.MP_D.WB_Data |        2111     92.06%     92.06% |          44      1.92%     93.98% |          41      1.79%     95.77% |          97      4.23%    100.00% (Unspecified)
system.caches.L1Cache_Controller.MP_D.WB_Data::total         2293                       (Unspecified)
system.caches.L1Cache_Controller.MI_A.Replacement |       10497     96.94%     96.94% |          97      0.90%     97.84% |         140      1.29%     99.13% |          94      0.87%    100.00% (Unspecified)
system.caches.L1Cache_Controller.MI_A.Replacement::total        10828                       (Unspecified)
system.caches.L1Cache_Controller.MI_A.PutAck |       10494     96.94%     96.94% |          97      0.90%     97.84% |         140      1.29%     99.13% |          94      0.87%    100.00% (Unspecified)
system.caches.L1Cache_Controller.MI_A.PutAck::total        10825                       (Unspecified)
system.caches.L1Cache_Controller.SI_A.Replacement |       40114     89.58%     89.58% |        1713      3.83%     93.40% |        1556      3.47%     96.88% |        1399      3.12%    100.00% (Unspecified)
system.caches.L1Cache_Controller.SI_A.Replacement::total        44782                       (Unspecified)
system.caches.L1Cache_Controller.SI_A.PutAck |       40110     89.60%     89.60% |        1712      3.82%     93.42% |        1551      3.46%     96.89% |        1394      3.11%    100.00% (Unspecified)
system.caches.L1Cache_Controller.SI_A.PutAck::total        44767                       (Unspecified)
system.caches.Directory_Controller.GetS         46972      0.00%      0.00% (Unspecified)
system.caches.Directory_Controller.GetM         12813      0.00%      0.00% (Unspecified)
system.caches.Directory_Controller.PutSNotLast         4316      0.00%      0.00% (Unspecified)
system.caches.Directory_Controller.PutSLast         4861      0.00%      0.00% (Unspecified)
system.caches.Directory_Controller.PutSLastWT        35590      0.00%      0.00% (Unspecified)
system.caches.Directory_Controller.PutMOwner         1497      0.00%      0.00% (Unspecified)
system.caches.Directory_Controller.PutMOwnerWT         9328      0.00%      0.00% (Unspecified)
system.caches.Directory_Controller.Sync          1823      0.00%      0.00% (Unspecified)
system.caches.Directory_Controller.MemData        31226      0.00%      0.00% (Unspecified)
system.caches.Directory_Controller.LastMemAck        46741      0.00%      0.00% (Unspecified)
system.caches.Directory_Controller.I.GetS        25082      0.00%      0.00% (Unspecified)
system.caches.Directory_Controller.I.GetM         6144      0.00%      0.00% (Unspecified)
system.caches.Directory_Controller.S.GetS         4712      0.00%      0.00% (Unspecified)
system.caches.Directory_Controller.S.GetM         1325      0.00%      0.00% (Unspecified)
system.caches.Directory_Controller.S.PutSNotLast         4316      0.00%      0.00% (Unspecified)
system.caches.Directory_Controller.S.PutSLast         4861      0.00%      0.00% (Unspecified)
system.caches.Directory_Controller.S.PutSLastWT        35590      0.00%      0.00% (Unspecified)
system.caches.Directory_Controller.M.GetS           50      0.00%      0.00% (Unspecified)
system.caches.Directory_Controller.M.GetM         1819      0.00%      0.00% (Unspecified)
system.caches.Directory_Controller.M.PutMOwner         1497      0.00%      0.00% (Unspecified)
system.caches.Directory_Controller.M.PutMOwnerWT         9328      0.00%      0.00% (Unspecified)
system.caches.Directory_Controller.LLCOnly.GetS        17128      0.00%      0.00% (Unspecified)
system.caches.Directory_Controller.LLCOnly.GetM         3525      0.00%      0.00% (Unspecified)
system.caches.Directory_Controller.LLCOnly.Sync         1823      0.00%      0.00% (Unspecified)
system.caches.Directory_Controller.LLCOnly_m.LastMemAck        37413      0.00%      0.00% (Unspecified)
system.caches.Directory_Controller.S_m.MemData        25082      0.00%      0.00% (Unspecified)
system.caches.Directory_Controller.M_m.MemData         6144      0.00%      0.00% (Unspecified)
system.caches.Directory_Controller.MI_m.LastMemAck         9328      0.00%      0.00% (Unspecified)
system.caches.RequestType.LD.latency_hist_seqr::bucket_size          128                       (Unspecified)
system.caches.RequestType.LD.latency_hist_seqr::max_bucket         1279                       (Unspecified)
system.caches.RequestType.LD.latency_hist_seqr::samples       812368                       (Unspecified)
system.caches.RequestType.LD.latency_hist_seqr::mean    11.875995                       (Unspecified)
system.caches.RequestType.LD.latency_hist_seqr::gmean     1.345677                       (Unspecified)
system.caches.RequestType.LD.latency_hist_seqr::stdev    54.503449                       (Unspecified)
system.caches.RequestType.LD.latency_hist_seqr |      781143     96.16%     96.16% |       14158      1.74%     97.90% |       15806      1.95%     99.84% |         778      0.10%     99.94% |         382      0.05%     99.99% |          94      0.01%    100.00% |           7      0.00%    100.00% |           0      0.00%    100.00% |           0      0.00%    100.00% |           0      0.00%    100.00% (Unspecified)
system.caches.RequestType.LD.latency_hist_seqr::total       812368                       (Unspecified)
system.caches.RequestType.LD.hit_latency_hist_seqr::bucket_size            1                       (Unspecified)
system.caches.RequestType.LD.hit_latency_hist_seqr::max_bucket            9                       (Unspecified)
system.caches.RequestType.LD.hit_latency_hist_seqr::samples       755042                       (Unspecified)
system.caches.RequestType.LD.hit_latency_hist_seqr::mean            1                       (Unspecified)
system.caches.RequestType.LD.hit_latency_hist_seqr::gmean            1                       (Unspecified)
system.caches.RequestType.LD.hit_latency_hist_seqr |           0      0.00%      0.00% |      755042    100.00%    100.00% |           0      0.00%    100.00% |           0      0.00%    100.00% |           0      0.00%    100.00% |           0      0.00%    100.00% |           0      0.00%    100.00% |           0      0.00%    100.00% |           0      0.00%    100.00% |           0      0.00%    100.00% (Unspecified)
system.caches.RequestType.LD.hit_latency_hist_seqr::total       755042                       (Unspecified)
system.caches.RequestType.LD.miss_latency_hist_seqr::bucket_size          128                       (Unspecified)
system.caches.RequestType.LD.miss_latency_hist_seqr::max_bucket         1279                       (Unspecified)
system.caches.RequestType.LD.miss_latency_hist_seqr::samples        57326                       (Unspecified)
system.caches.RequestType.LD.miss_latency_hist_seqr::mean   155.123958                       (Unspecified)
system.caches.RequestType.LD.miss_latency_hist_seqr::gmean    67.177134                       (Unspecified)
system.caches.RequestType.LD.miss_latency_hist_seqr::stdev   141.489079                       (Unspecified)
system.caches.RequestType.LD.miss_latency_hist_seqr |       26101     45.53%     45.53% |       14158     24.70%     70.23% |       15806     27.57%     97.80% |         778      1.36%     99.16% |         382      0.67%     99.82% |          94      0.16%     99.99% |           7      0.01%    100.00% |           0      0.00%    100.00% |           0      0.00%    100.00% |           0      0.00%    100.00% (Unspecified)
system.caches.RequestType.LD.miss_latency_hist_seqr::total        57326                       (Unspecified)
system.caches.RequestType.ST.latency_hist_seqr::bucket_size          128                       (Unspecified)
system.caches.RequestType.ST.latency_hist_seqr::max_bucket         1279                       (Unspecified)
system.caches.RequestType.ST.latency_hist_seqr::samples       290568                       (Unspecified)
system.caches.RequestType.ST.latency_hist_seqr::mean    10.036855                       (Unspecified)
system.caches.RequestType.ST.latency_hist_seqr::gmean     1.247610                       (Unspecified)
system.caches.RequestType.ST.latency_hist_seqr::stdev    51.034780                       (Unspecified)
system.caches.RequestType.ST.latency_hist_seqr |      281443     96.86%     96.86% |        3181      1.09%     97.95% |        5086      1.75%     99.70% |         647      0.22%     99.93% |         176      0.06%     99.99% |          33      0.01%    100.00% |           2      0.00%    100.00% |           0      0.00%    100.00% |           0      0.00%    100.00% |           0      0.00%    100.00% (Unspecified)
system.caches.RequestType.ST.latency_hist_seqr::total       290568                       (Unspecified)
system.caches.RequestType.ST.hit_latency_hist_seqr::bucket_size            1                       (Unspecified)
system.caches.RequestType.ST.hit_latency_hist_seqr::max_bucket            9                       (Unspecified)
system.caches.RequestType.ST.hit_latency_hist_seqr::samples       276658                       (Unspecified)
system.caches.RequestType.ST.hit_latency_hist_seqr::mean            1                       (Unspecified)
system.caches.RequestType.ST.hit_latency_hist_seqr::gmean            1                       (Unspecified)
system.caches.RequestType.ST.hit_latency_hist_seqr |           0      0.00%      0.00% |      276658    100.00%    100.00% |           0      0.00%    100.00% |           0      0.00%    100.00% |           0      0.00%    100.00% |           0      0.00%    100.00% |           0      0.00%    100.00% |           0      0.00%    100.00% |           0      0.00%    100.00% |           0      0.00%    100.00% (Unspecified)
system.caches.RequestType.ST.hit_latency_hist_seqr::total       276658                       (Unspecified)
system.caches.RequestType.ST.miss_latency_hist_seqr::bucket_size          128                       (Unspecified)
system.caches.RequestType.ST.miss_latency_hist_seqr::max_bucket         1279                       (Unspecified)
system.caches.RequestType.ST.miss_latency_hist_seqr::samples        13910                       (Unspecified)
system.caches.RequestType.ST.miss_latency_hist_seqr::mean   189.772178                       (Unspecified)
system.caches.RequestType.ST.miss_latency_hist_seqr::gmean   101.626332                       (Unspecified)
system.caches.RequestType.ST.miss_latency_hist_seqr::stdev   143.105037                       (Unspecified)
system.caches.RequestType.ST.miss_latency_hist_seqr |        4785     34.40%     34.40% |        3181     22.87%     57.27% |        5086     36.56%     93.83% |         647      4.65%     98.48% |         176      1.27%     99.75% |          33      0.24%     99.99% |           2      0.01%    100.00% |           0      0.00%    100.00% |           0      0.00%    100.00% |           0      0.00%    100.00% (Unspecified)
system.caches.RequestType.ST.miss_latency_hist_seqr::total        13910                       (Unspecified)
system.caches.RequestType.IFETCH.latency_hist_seqr::bucket_size          128                       (Unspecified)
system.caches.RequestType.IFETCH.latency_hist_seqr::max_bucket         1279                       (Unspecified)
system.caches.RequestType.IFETCH.latency_hist_seqr::samples      4044459                       (Unspecified)
system.caches.RequestType.IFETCH.latency_hist_seqr::mean     1.856942                       (Unspecified)
system.caches.RequestType.IFETCH.latency_hist_seqr::gmean     1.024899                       (Unspecified)
system.caches.RequestType.IFETCH.latency_hist_seqr::stdev    15.725444                       (Unspecified)
system.caches.RequestType.IFETCH.latency_hist_seqr |     4032411     99.70%     99.70% |        5653      0.14%     99.84% |        5875      0.15%     99.99% |         286      0.01%     99.99% |         167      0.00%    100.00% |          59      0.00%    100.00% |           6      0.00%    100.00% |           2      0.00%    100.00% |           0      0.00%    100.00% |           0      0.00%    100.00% (Unspecified)
system.caches.RequestType.IFETCH.latency_hist_seqr::total      4044459                       (Unspecified)
system.caches.RequestType.IFETCH.hit_latency_hist_seqr::bucket_size            1                       (Unspecified)
system.caches.RequestType.IFETCH.hit_latency_hist_seqr::max_bucket            9                       (Unspecified)
system.caches.RequestType.IFETCH.hit_latency_hist_seqr::samples      4019624                       (Unspecified)
system.caches.RequestType.IFETCH.hit_latency_hist_seqr::mean            1                       (Unspecified)
system.caches.RequestType.IFETCH.hit_latency_hist_seqr::gmean            1                       (Unspecified)
system.caches.RequestType.IFETCH.hit_latency_hist_seqr |           0      0.00%      0.00% |     4019624    100.00%    100.00% |           0      0.00%    100.00% |           0      0.00%    100.00% |           0      0.00%    100.00% |           0      0.00%    100.00% |           0      0.00%    100.00% |           0      0.00%    100.00% |           0      0.00%    100.00% |           0      0.00%    100.00% (Unspecified)
system.caches.RequestType.IFETCH.hit_latency_hist_seqr::total      4019624                       (Unspecified)
system.caches.RequestType.IFETCH.miss_latency_hist_seqr::bucket_size          128                       (Unspecified)
system.caches.RequestType.IFETCH.miss_latency_hist_seqr::max_bucket         1279                       (Unspecified)
system.caches.RequestType.IFETCH.miss_latency_hist_seqr::samples        24835                       (Unspecified)
system.caches.RequestType.IFETCH.miss_latency_hist_seqr::mean   140.555748                       (Unspecified)
system.caches.RequestType.IFETCH.miss_latency_hist_seqr::gmean    54.888121                       (Unspecified)
system.caches.RequestType.IFETCH.miss_latency_hist_seqr::stdev   144.625434                       (Unspecified)
system.caches.RequestType.IFETCH.miss_latency_hist_seqr |       12787     51.49%     51.49% |        5653     22.76%     74.25% |        5875     23.66%     97.91% |         286      1.15%     99.06% |         167      0.67%     99.73% |          59      0.24%     99.97% |           6      0.02%     99.99% |           2      0.01%    100.00% |           0      0.00%    100.00% |           0      0.00%    100.00% (Unspecified)
system.caches.RequestType.IFETCH.miss_latency_hist_seqr::total        24835                       (Unspecified)
system.caches.RequestType.RMW_Read.latency_hist_seqr::bucket_size          128                       (Unspecified)
system.caches.RequestType.RMW_Read.latency_hist_seqr::max_bucket         1279                       (Unspecified)
system.caches.RequestType.RMW_Read.latency_hist_seqr::samples        45326                       (Unspecified)
system.caches.RequestType.RMW_Read.latency_hist_seqr::mean    10.859793                       (Unspecified)
system.caches.RequestType.RMW_Read.latency_hist_seqr::gmean     1.316508                       (Unspecified)
system.caches.RequestType.RMW_Read.latency_hist_seqr::stdev    47.304775                       (Unspecified)
system.caches.RequestType.RMW_Read.latency_hist_seqr |       43423     95.80%     95.80% |        1302      2.87%     98.67% |         597      1.32%     99.99% |           1      0.00%     99.99% |           2      0.00%    100.00% |           1      0.00%    100.00% |           0      0.00%    100.00% |           0      0.00%    100.00% |           0      0.00%    100.00% |           0      0.00%    100.00% (Unspecified)
system.caches.RequestType.RMW_Read.latency_hist_seqr::total        45326                       (Unspecified)
system.caches.RequestType.RMW_Read.hit_latency_hist_seqr::bucket_size            1                       (Unspecified)
system.caches.RequestType.RMW_Read.hit_latency_hist_seqr::max_bucket            9                       (Unspecified)
system.caches.RequestType.RMW_Read.hit_latency_hist_seqr::samples        42584                       (Unspecified)
system.caches.RequestType.RMW_Read.hit_latency_hist_seqr::mean            1                       (Unspecified)
system.caches.RequestType.RMW_Read.hit_latency_hist_seqr::gmean            1                       (Unspecified)
system.caches.RequestType.RMW_Read.hit_latency_hist_seqr |           0      0.00%      0.00% |       42584    100.00%    100.00% |           0      0.00%    100.00% |           0      0.00%    100.00% |           0      0.00%    100.00% |           0      0.00%    100.00% |           0      0.00%    100.00% |           0      0.00%    100.00% |           0      0.00%    100.00% |           0      0.00%    100.00% (Unspecified)
system.caches.RequestType.RMW_Read.hit_latency_hist_seqr::total        42584                       (Unspecified)
system.caches.RequestType.RMW_Read.miss_latency_hist_seqr::bucket_size          128                       (Unspecified)
system.caches.RequestType.RMW_Read.miss_latency_hist_seqr::max_bucket         1279                       (Unspecified)
system.caches.RequestType.RMW_Read.miss_latency_hist_seqr::samples         2742                       (Unspecified)
system.caches.RequestType.RMW_Read.miss_latency_hist_seqr::mean   163.985047                       (Unspecified)
system.caches.RequestType.RMW_Read.miss_latency_hist_seqr::gmean    94.211116                       (Unspecified)
system.caches.RequestType.RMW_Read.miss_latency_hist_seqr::stdev   109.712909                       (Unspecified)
system.caches.RequestType.RMW_Read.miss_latency_hist_seqr |         839     30.60%     30.60% |        1302     47.48%     78.08% |         597     21.77%     99.85% |           1      0.04%     99.89% |           2      0.07%     99.96% |           1      0.04%    100.00% |           0      0.00%    100.00% |           0      0.00%    100.00% |           0      0.00%    100.00% |           0      0.00%    100.00% (Unspecified)
system.caches.RequestType.RMW_Read.miss_latency_hist_seqr::total         2742                       (Unspecified)
system.caches.RequestType.Locked_RMW_Read.latency_hist_seqr::bucket_size          128                       (Unspecified)
system.caches.RequestType.Locked_RMW_Read.latency_hist_seqr::max_bucket         1279                       (Unspecified)
system.caches.RequestType.Locked_RMW_Read.latency_hist_seqr::samples          369                       (Unspecified)
system.caches.RequestType.Locked_RMW_Read.latency_hist_seqr::mean    39.994580                       (Unspecified)
system.caches.RequestType.Locked_RMW_Read.latency_hist_seqr::gmean     3.423001                       (Unspecified)
system.caches.RequestType.Locked_RMW_Read.latency_hist_seqr::stdev   108.245971                       (Unspecified)
system.caches.RequestType.Locked_RMW_Read.latency_hist_seqr |         328     88.89%     88.89% |          21      5.69%     94.58% |          10      2.71%     97.29% |           5      1.36%     98.64% |           4      1.08%     99.73% |           0      0.00%     99.73% |           1      0.27%    100.00% |           0      0.00%    100.00% |           0      0.00%    100.00% |           0      0.00%    100.00% (Unspecified)
system.caches.RequestType.Locked_RMW_Read.latency_hist_seqr::total          369                       (Unspecified)
system.caches.RequestType.Locked_RMW_Read.hit_latency_hist_seqr::bucket_size            1                       (Unspecified)
system.caches.RequestType.Locked_RMW_Read.hit_latency_hist_seqr::max_bucket            9                       (Unspecified)
system.caches.RequestType.Locked_RMW_Read.hit_latency_hist_seqr::samples          257                       (Unspecified)
system.caches.RequestType.Locked_RMW_Read.hit_latency_hist_seqr::mean            1                       (Unspecified)
system.caches.RequestType.Locked_RMW_Read.hit_latency_hist_seqr::gmean            1                       (Unspecified)
system.caches.RequestType.Locked_RMW_Read.hit_latency_hist_seqr |           0      0.00%      0.00% |         257    100.00%    100.00% |           0      0.00%    100.00% |           0      0.00%    100.00% |           0      0.00%    100.00% |           0      0.00%    100.00% |           0      0.00%    100.00% |           0      0.00%    100.00% |           0      0.00%    100.00% |           0      0.00%    100.00% (Unspecified)
system.caches.RequestType.Locked_RMW_Read.hit_latency_hist_seqr::total          257                       (Unspecified)
system.caches.RequestType.Locked_RMW_Read.miss_latency_hist_seqr::bucket_size          128                       (Unspecified)
system.caches.RequestType.Locked_RMW_Read.miss_latency_hist_seqr::max_bucket         1279                       (Unspecified)
system.caches.RequestType.Locked_RMW_Read.miss_latency_hist_seqr::samples          112                       (Unspecified)
system.caches.RequestType.Locked_RMW_Read.miss_latency_hist_seqr::mean   129.473214                       (Unspecified)
system.caches.RequestType.Locked_RMW_Read.miss_latency_hist_seqr::gmean    57.634217                       (Unspecified)
system.caches.RequestType.Locked_RMW_Read.miss_latency_hist_seqr::stdev   165.066678                       (Unspecified)
system.caches.RequestType.Locked_RMW_Read.miss_latency_hist_seqr |          71     63.39%     63.39% |          21     18.75%     82.14% |          10      8.93%     91.07% |           5      4.46%     95.54% |           4      3.57%     99.11% |           0      0.00%     99.11% |           1      0.89%    100.00% |           0      0.00%    100.00% |           0      0.00%    100.00% |           0      0.00%    100.00% (Unspecified)
system.caches.RequestType.Locked_RMW_Read.miss_latency_hist_seqr::total          112                       (Unspecified)
system.caches.RequestType.Locked_RMW_Write.latency_hist_seqr::bucket_size            1                       (Unspecified)
system.caches.RequestType.Locked_RMW_Write.latency_hist_seqr::max_bucket            9                       (Unspecified)
system.caches.RequestType.Locked_RMW_Write.latency_hist_seqr::samples          369                       (Unspecified)
system.caches.RequestType.Locked_RMW_Write.latency_hist_seqr::mean            1                       (Unspecified)
system.caches.RequestType.Locked_RMW_Write.latency_hist_seqr::gmean            1                       (Unspecified)
system.caches.RequestType.Locked_RMW_Write.latency_hist_seqr |           0      0.00%      0.00% |         369    100.00%    100.00% |           0      0.00%    100.00% |           0      0.00%    100.00% |           0      0.00%    100.00% |           0      0.00%    100.00% |           0      0.00%    100.00% |           0      0.00%    100.00% |           0      0.00%    100.00% |           0      0.00%    100.00% (Unspecified)
system.caches.RequestType.Locked_RMW_Write.latency_hist_seqr::total          369                       (Unspecified)
system.caches.RequestType.Locked_RMW_Write.hit_latency_hist_seqr::bucket_size            1                       (Unspecified)
system.caches.RequestType.Locked_RMW_Write.hit_latency_hist_seqr::max_bucket            9                       (Unspecified)
system.caches.RequestType.Locked_RMW_Write.hit_latency_hist_seqr::samples          369                       (Unspecified)
system.caches.RequestType.Locked_RMW_Write.hit_latency_hist_seqr::mean            1                       (Unspecified)
system.caches.RequestType.Locked_RMW_Write.hit_latency_hist_seqr::gmean            1                       (Unspecified)
system.caches.RequestType.Locked_RMW_Write.hit_latency_hist_seqr |           0      0.00%      0.00% |         369    100.00%    100.00% |           0      0.00%    100.00% |           0      0.00%    100.00% |           0      0.00%    100.00% |           0      0.00%    100.00% |           0      0.00%    100.00% |           0      0.00%    100.00% |           0      0.00%    100.00% |           0      0.00%    100.00% (Unspecified)
system.caches.RequestType.Locked_RMW_Write.hit_latency_hist_seqr::total          369                       (Unspecified)
system.caches.controllers0.DCache.m_demand_hits            0                       # Number of cache demand hits (Unspecified)
system.caches.controllers0.DCache.m_demand_misses            0                       # Number of cache demand misses (Unspecified)
system.caches.controllers0.DCache.m_demand_accesses            0                       # Number of cache demand accesses (Unspecified)
system.caches.controllers0.ICache.m_demand_hits            0                       # Number of cache demand hits (Unspecified)
system.caches.controllers0.ICache.m_demand_misses            0                       # Number of cache demand misses (Unspecified)
system.caches.controllers0.ICache.m_demand_accesses            0                       # Number of cache demand accesses (Unspecified)
system.caches.controllers0.forwardFromL1.m_buf_msgs     0.001840                       # Average number of messages in buffer (Unspecified)
system.caches.controllers0.forwardFromL1.m_stall_time  4996.022929                       # Average number of cycles messages are stalled in this MB (Unspecified)
system.caches.controllers0.mandatoryQueue.m_buf_msgs     0.210236                       # Average number of messages in buffer (Unspecified)
system.caches.controllers0.mandatoryQueue.m_stall_time   999.999956                       # Average number of cycles messages are stalled in this MB (Unspecified)
system.caches.controllers0.power_state.pwrStateResidencyTicks::UNDEFINED  22945279000                       # Cumulative time (in ticks) in various power states (Tick)
system.caches.controllers0.requestToL1.m_buf_msgs     0.004612                       # Average number of messages in buffer (Unspecified)
system.caches.controllers0.requestToL1.m_stall_time   999.999913                       # Average number of cycles messages are stalled in this MB (Unspecified)
system.caches.controllers0.responseFromL1.m_buf_msgs     0.003956                       # Average number of messages in buffer (Unspecified)
system.caches.controllers0.responseFromL1.m_stall_time  4999.971454                       # Average number of cycles messages are stalled in this MB (Unspecified)
system.caches.controllers0.responseToL1.m_buf_msgs     0.000092                       # Average number of messages in buffer (Unspecified)
system.caches.controllers0.responseToL1.m_stall_time   999.045381                       # Average number of cycles messages are stalled in this MB (Unspecified)
system.caches.controllers0.xyzStatsObject.power_state.pwrStateResidencyTicks::UNDEFINED  22945279000                       # Cumulative time (in ticks) in various power states (Tick)
system.caches.controllers1.DCache.m_demand_hits            0                       # Number of cache demand hits (Unspecified)
system.caches.controllers1.DCache.m_demand_misses            0                       # Number of cache demand misses (Unspecified)
system.caches.controllers1.DCache.m_demand_accesses            0                       # Number of cache demand accesses (Unspecified)
system.caches.controllers1.ICache.m_demand_hits            0                       # Number of cache demand hits (Unspecified)
system.caches.controllers1.ICache.m_demand_misses            0                       # Number of cache demand misses (Unspecified)
system.caches.controllers1.ICache.m_demand_accesses            0                       # Number of cache demand accesses (Unspecified)
system.caches.controllers1.forwardFromL1.m_buf_msgs     0.000077                       # Average number of messages in buffer (Unspecified)
system.caches.controllers1.forwardFromL1.m_stall_time   442.336090                       # Average number of cycles messages are stalled in this MB (Unspecified)
system.caches.controllers1.mandatoryQueue.m_buf_msgs     0.005589                       # Average number of messages in buffer (Unspecified)
system.caches.controllers1.mandatoryQueue.m_stall_time    89.066208                       # Average number of cycles messages are stalled in this MB (Unspecified)
system.caches.controllers1.power_state.pwrStateResidencyTicks::UNDEFINED  22945279000                       # Cumulative time (in ticks) in various power states (Tick)
system.caches.controllers1.requestToL1.m_buf_msgs     0.000169                       # Average number of messages in buffer (Unspecified)
system.caches.controllers1.requestToL1.m_stall_time    89.066165                       # Average number of cycles messages are stalled in this MB (Unspecified)
system.caches.controllers1.responseFromL1.m_buf_msgs     0.000133                       # Average number of messages in buffer (Unspecified)
system.caches.controllers1.responseFromL1.m_stall_time   445.324940                       # Average number of cycles messages are stalled in this MB (Unspecified)
system.caches.controllers1.responseToL1.m_buf_msgs     0.000002                       # Average number of messages in buffer (Unspecified)
system.caches.controllers1.responseToL1.m_stall_time    83.616765                       # Average number of cycles messages are stalled in this MB (Unspecified)
system.caches.controllers1.xyzStatsObject.power_state.pwrStateResidencyTicks::UNDEFINED  22945279000                       # Cumulative time (in ticks) in various power states (Tick)
system.caches.controllers2.DCache.m_demand_hits            0                       # Number of cache demand hits (Unspecified)
system.caches.controllers2.DCache.m_demand_misses            0                       # Number of cache demand misses (Unspecified)
system.caches.controllers2.DCache.m_demand_accesses            0                       # Number of cache demand accesses (Unspecified)
system.caches.controllers2.ICache.m_demand_hits            0                       # Number of cache demand hits (Unspecified)
system.caches.controllers2.ICache.m_demand_misses            0                       # Number of cache demand misses (Unspecified)
system.caches.controllers2.ICache.m_demand_accesses            0                       # Number of cache demand accesses (Unspecified)
system.caches.controllers2.forwardFromL1.m_buf_msgs     0.000070                       # Average number of messages in buffer (Unspecified)
system.caches.controllers2.forwardFromL1.m_stall_time   419.687641                       # Average number of cycles messages are stalled in this MB (Unspecified)
system.caches.controllers2.mandatoryQueue.m_buf_msgs     0.005330                       # Average number of messages in buffer (Unspecified)
system.caches.controllers2.mandatoryQueue.m_stall_time    84.329591                       # Average number of cycles messages are stalled in this MB (Unspecified)
system.caches.controllers2.power_state.pwrStateResidencyTicks::UNDEFINED  22945279000                       # Cumulative time (in ticks) in various power states (Tick)
system.caches.controllers2.requestToL1.m_buf_msgs     0.000150                       # Average number of messages in buffer (Unspecified)
system.caches.controllers2.requestToL1.m_stall_time    84.329548                       # Average number of cycles messages are stalled in this MB (Unspecified)
system.caches.controllers2.responseFromL1.m_buf_msgs     0.000117                       # Average number of messages in buffer (Unspecified)
system.caches.controllers2.responseFromL1.m_stall_time   421.641855                       # Average number of cycles messages are stalled in this MB (Unspecified)
system.caches.controllers2.responseToL1.m_buf_msgs     0.000002                       # Average number of messages in buffer (Unspecified)
system.caches.controllers2.responseToL1.m_stall_time    81.347496                       # Average number of cycles messages are stalled in this MB (Unspecified)
system.caches.controllers2.xyzStatsObject.power_state.pwrStateResidencyTicks::UNDEFINED  22945279000                       # Cumulative time (in ticks) in various power states (Tick)
system.caches.controllers3.DCache.m_demand_hits            0                       # Number of cache demand hits (Unspecified)
system.caches.controllers3.DCache.m_demand_misses            0                       # Number of cache demand misses (Unspecified)
system.caches.controllers3.DCache.m_demand_accesses            0                       # Number of cache demand accesses (Unspecified)
system.caches.controllers3.ICache.m_demand_hits            0                       # Number of cache demand hits (Unspecified)
system.caches.controllers3.ICache.m_demand_misses            0                       # Number of cache demand misses (Unspecified)
system.caches.controllers3.ICache.m_demand_accesses            0                       # Number of cache demand accesses (Unspecified)
system.caches.controllers3.forwardFromL1.m_buf_msgs     0.000065                       # Average number of messages in buffer (Unspecified)
system.caches.controllers3.forwardFromL1.m_stall_time   399.902961                       # Average number of cycles messages are stalled in this MB (Unspecified)
system.caches.controllers3.mandatoryQueue.m_buf_msgs     0.005187                       # Average number of messages in buffer (Unspecified)
system.caches.controllers3.mandatoryQueue.m_stall_time    80.451887                       # Average number of cycles messages are stalled in this MB (Unspecified)
system.caches.controllers3.power_state.pwrStateResidencyTicks::UNDEFINED  22945279000                       # Cumulative time (in ticks) in various power states (Tick)
system.caches.controllers3.requestToL1.m_buf_msgs     0.000133                       # Average number of messages in buffer (Unspecified)
system.caches.controllers3.requestToL1.m_stall_time    80.451844                       # Average number of cycles messages are stalled in this MB (Unspecified)
system.caches.controllers3.responseFromL1.m_buf_msgs     0.000105                       # Average number of messages in buffer (Unspecified)
system.caches.controllers3.responseFromL1.m_stall_time   402.230019                       # Average number of cycles messages are stalled in this MB (Unspecified)
system.caches.controllers3.responseToL1.m_buf_msgs     0.000004                       # Average number of messages in buffer (Unspecified)
system.caches.controllers3.responseToL1.m_stall_time    79.304418                       # Average number of cycles messages are stalled in this MB (Unspecified)
system.caches.controllers3.xyzStatsObject.power_state.pwrStateResidencyTicks::UNDEFINED  22945279000                       # Cumulative time (in ticks) in various power states (Tick)
system.caches.controllers4.cacheMemory.m_demand_hits            0                       # Number of cache demand hits (Unspecified)
system.caches.controllers4.cacheMemory.m_demand_misses            0                       # Number of cache demand misses (Unspecified)
system.caches.controllers4.cacheMemory.m_demand_accesses            0                       # Number of cache demand accesses (Unspecified)
system.caches.controllers4.forwardFromDir.m_buf_msgs     0.002221                       # Average number of messages in buffer (Unspecified)
system.caches.controllers4.forwardFromDir.m_stall_time  4998.337610                       # Average number of cycles messages are stalled in this MB (Unspecified)
system.caches.controllers4.forwardFromDir.m_stall_count           33                       # Number of times messages were stalled (Unspecified)
system.caches.controllers4.forwardToL0.m_buf_msgs     0.001840                       # Average number of messages in buffer (Unspecified)
system.caches.controllers4.forwardToL0.m_stall_time   999.204760                       # Average number of cycles messages are stalled in this MB (Unspecified)
system.caches.controllers4.power_state.pwrStateResidencyTicks::UNDEFINED  22945279000                       # Cumulative time (in ticks) in various power states (Tick)
system.caches.controllers4.requestFromL0.m_buf_msgs     0.037363                       # Average number of messages in buffer (Unspecified)
system.caches.controllers4.requestFromL0.m_stall_time 17158.531522                       # Average number of cycles messages are stalled in this MB (Unspecified)
system.caches.controllers4.requestFromL0.m_stall_count        52690                       # Number of times messages were stalled (Unspecified)
system.caches.controllers4.requestToDir.m_buf_msgs     0.004478                       # Average number of messages in buffer (Unspecified)
system.caches.controllers4.requestToDir.m_stall_time   999.999695                       # Average number of cycles messages are stalled in this MB (Unspecified)
system.caches.controllers4.responseFromDirOrSibling.m_buf_msgs     0.002273                       # Average number of messages in buffer (Unspecified)
system.caches.controllers4.responseFromDirOrSibling.m_stall_time 12919.347941                       # Average number of cycles messages are stalled in this MB (Unspecified)
system.caches.controllers4.responseFromL0.m_buf_msgs     0.000092                       # Average number of messages in buffer (Unspecified)
system.caches.controllers4.responseFromL0.m_stall_time  4995.290012                       # Average number of cycles messages are stalled in this MB (Unspecified)
system.caches.controllers4.responseToDirOrSibling.m_buf_msgs     0.000002                       # Average number of messages in buffer (Unspecified)
system.caches.controllers4.responseToDirOrSibling.m_stall_time    89.054180                       # Average number of cycles messages are stalled in this MB (Unspecified)
system.caches.controllers4.responseToL0.m_buf_msgs     0.003956                       # Average number of messages in buffer (Unspecified)
system.caches.controllers4.responseToL0.m_stall_time   999.994465                       # Average number of cycles messages are stalled in this MB (Unspecified)
system.caches.controllers4.xyzStatsObject.power_state.pwrStateResidencyTicks::UNDEFINED  22945279000                       # Cumulative time (in ticks) in various power states (Tick)
system.caches.controllers5.cacheMemory.m_demand_hits            0                       # Number of cache demand hits (Unspecified)
system.caches.controllers5.cacheMemory.m_demand_misses            0                       # Number of cache demand misses (Unspecified)
system.caches.controllers5.cacheMemory.m_demand_accesses            0                       # Number of cache demand accesses (Unspecified)
system.caches.controllers5.forwardFromDir.m_buf_msgs     0.000118                       # Average number of messages in buffer (Unspecified)
system.caches.controllers5.forwardFromDir.m_stall_time   465.570412                       # Average number of cycles messages are stalled in this MB (Unspecified)
system.caches.controllers5.forwardFromDir.m_stall_count           24                       # Number of times messages were stalled (Unspecified)
system.caches.controllers5.forwardToL0.m_buf_msgs     0.000077                       # Average number of messages in buffer (Unspecified)
system.caches.controllers5.forwardToL0.m_stall_time    88.467392                       # Average number of cycles messages are stalled in this MB (Unspecified)
system.caches.controllers5.power_state.pwrStateResidencyTicks::UNDEFINED  22945279000                       # Cumulative time (in ticks) in various power states (Tick)
system.caches.controllers5.requestFromL0.m_buf_msgs     0.006671                       # Average number of messages in buffer (Unspecified)
system.caches.controllers5.requestFromL0.m_stall_time  7513.507816                       # Average number of cycles messages are stalled in this MB (Unspecified)
system.caches.controllers5.requestFromL0.m_stall_count         1830                       # Number of times messages were stalled (Unspecified)
system.caches.controllers5.requestToDir.m_buf_msgs     0.000198                       # Average number of messages in buffer (Unspecified)
system.caches.controllers5.requestToDir.m_stall_time    89.065947                       # Average number of cycles messages are stalled in this MB (Unspecified)
system.caches.controllers5.responseFromDirOrSibling.m_buf_msgs     0.000119                       # Average number of messages in buffer (Unspecified)
system.caches.controllers5.responseFromDirOrSibling.m_stall_time  1155.252634                       # Average number of cycles messages are stalled in this MB (Unspecified)
system.caches.controllers5.responseFromL0.m_buf_msgs     0.000002                       # Average number of messages in buffer (Unspecified)
system.caches.controllers5.responseFromL0.m_stall_time   418.082953                       # Average number of cycles messages are stalled in this MB (Unspecified)
system.caches.controllers5.responseToDirOrSibling.m_buf_msgs     0.000028                       # Average number of messages in buffer (Unspecified)
system.caches.controllers5.responseToDirOrSibling.m_stall_time    86.040357                       # Average number of cycles messages are stalled in this MB (Unspecified)
system.caches.controllers5.responseToL0.m_buf_msgs     0.000133                       # Average number of messages in buffer (Unspecified)
system.caches.controllers5.responseToL0.m_stall_time    89.065162                       # Average number of cycles messages are stalled in this MB (Unspecified)
system.caches.controllers5.xyzStatsObject.power_state.pwrStateResidencyTicks::UNDEFINED  22945279000                       # Cumulative time (in ticks) in various power states (Tick)
system.caches.controllers6.cacheMemory.m_demand_hits            0                       # Number of cache demand hits (Unspecified)
system.caches.controllers6.cacheMemory.m_demand_misses            0                       # Number of cache demand misses (Unspecified)
system.caches.controllers6.cacheMemory.m_demand_accesses            0                       # Number of cache demand accesses (Unspecified)
system.caches.controllers6.forwardFromDir.m_buf_msgs     0.000107                       # Average number of messages in buffer (Unspecified)
system.caches.controllers6.forwardFromDir.m_stall_time   822.983848                       # Average number of cycles messages are stalled in this MB (Unspecified)
system.caches.controllers6.forwardFromDir.m_stall_count           19                       # Number of times messages were stalled (Unspecified)
system.caches.controllers6.forwardToL0.m_buf_msgs     0.000070                       # Average number of messages in buffer (Unspecified)
system.caches.controllers6.forwardToL0.m_stall_time    83.937702                       # Average number of cycles messages are stalled in this MB (Unspecified)
system.caches.controllers6.power_state.pwrStateResidencyTicks::UNDEFINED  22945279000                       # Cumulative time (in ticks) in various power states (Tick)
system.caches.controllers6.requestFromL0.m_buf_msgs     0.009340                       # Average number of messages in buffer (Unspecified)
system.caches.controllers6.requestFromL0.m_stall_time 17132.519474                       # Average number of cycles messages are stalled in this MB (Unspecified)
system.caches.controllers6.requestFromL0.m_stall_count         1718                       # Number of times messages were stalled (Unspecified)
system.caches.controllers6.requestToDir.m_buf_msgs     0.000184                       # Average number of messages in buffer (Unspecified)
system.caches.controllers6.requestToDir.m_stall_time    84.329330                       # Average number of cycles messages are stalled in this MB (Unspecified)
system.caches.controllers6.responseFromDirOrSibling.m_buf_msgs     0.000110                       # Average number of messages in buffer (Unspecified)
system.caches.controllers6.responseFromDirOrSibling.m_stall_time  1006.385105                       # Average number of cycles messages are stalled in this MB (Unspecified)
system.caches.controllers6.responseFromL0.m_buf_msgs     0.000002                       # Average number of messages in buffer (Unspecified)
system.caches.controllers6.responseFromL0.m_stall_time   406.736610                       # Average number of cycles messages are stalled in this MB (Unspecified)
system.caches.controllers6.responseToDirOrSibling.m_buf_msgs     0.000025                       # Average number of messages in buffer (Unspecified)
system.caches.controllers6.responseToDirOrSibling.m_stall_time    78.477974                       # Average number of cycles messages are stalled in this MB (Unspecified)
system.caches.controllers6.responseToL0.m_buf_msgs     0.000117                       # Average number of messages in buffer (Unspecified)
system.caches.controllers6.responseToL0.m_stall_time    84.328545                       # Average number of cycles messages are stalled in this MB (Unspecified)
system.caches.controllers6.xyzStatsObject.power_state.pwrStateResidencyTicks::UNDEFINED  22945279000                       # Cumulative time (in ticks) in various power states (Tick)
system.caches.controllers7.cacheMemory.m_demand_hits            0                       # Number of cache demand hits (Unspecified)
system.caches.controllers7.cacheMemory.m_demand_misses            0                       # Number of cache demand misses (Unspecified)
system.caches.controllers7.cacheMemory.m_demand_accesses            0                       # Number of cache demand accesses (Unspecified)
system.caches.controllers7.forwardFromDir.m_buf_msgs     0.000119                       # Average number of messages in buffer (Unspecified)
system.caches.controllers7.forwardFromDir.m_stall_time   427.853067                       # Average number of cycles messages are stalled in this MB (Unspecified)
system.caches.controllers7.forwardFromDir.m_stall_count           62                       # Number of times messages were stalled (Unspecified)
system.caches.controllers7.forwardToL0.m_buf_msgs     0.000065                       # Average number of messages in buffer (Unspecified)
system.caches.controllers7.forwardToL0.m_stall_time    79.980766                       # Average number of cycles messages are stalled in this MB (Unspecified)
system.caches.controllers7.power_state.pwrStateResidencyTicks::UNDEFINED  22945279000                       # Cumulative time (in ticks) in various power states (Tick)
system.caches.controllers7.requestFromL0.m_buf_msgs     0.006881                       # Average number of messages in buffer (Unspecified)
system.caches.controllers7.requestFromL0.m_stall_time  5685.606528                       # Average number of cycles messages are stalled in this MB (Unspecified)
system.caches.controllers7.requestFromL0.m_stall_count         1528                       # Number of times messages were stalled (Unspecified)
system.caches.controllers7.requestToDir.m_buf_msgs     0.000168                       # Average number of messages in buffer (Unspecified)
system.caches.controllers7.requestToDir.m_stall_time    80.451626                       # Average number of cycles messages are stalled in this MB (Unspecified)
system.caches.controllers7.responseFromDirOrSibling.m_buf_msgs     0.000103                       # Average number of messages in buffer (Unspecified)
system.caches.controllers7.responseFromDirOrSibling.m_stall_time   990.153356                       # Average number of cycles messages are stalled in this MB (Unspecified)
system.caches.controllers7.responseFromL0.m_buf_msgs     0.000004                       # Average number of messages in buffer (Unspecified)
system.caches.controllers7.responseFromL0.m_stall_time   396.521219                       # Average number of cycles messages are stalled in this MB (Unspecified)
system.caches.controllers7.responseToDirOrSibling.m_buf_msgs     0.000027                       # Average number of messages in buffer (Unspecified)
system.caches.controllers7.responseToDirOrSibling.m_stall_time    79.304200                       # Average number of cycles messages are stalled in this MB (Unspecified)
system.caches.controllers7.responseToL0.m_buf_msgs     0.000105                       # Average number of messages in buffer (Unspecified)
system.caches.controllers7.responseToL0.m_stall_time    80.446178                       # Average number of cycles messages are stalled in this MB (Unspecified)
system.caches.controllers7.xyzStatsObject.power_state.pwrStateResidencyTicks::UNDEFINED  22945279000                       # Cumulative time (in ticks) in various power states (Tick)
system.caches.controllers8.cacheMemory.m_demand_hits            0                       # Number of cache demand hits (Unspecified)
system.caches.controllers8.cacheMemory.m_demand_misses            0                       # Number of cache demand misses (Unspecified)
system.caches.controllers8.cacheMemory.m_demand_accesses            0                       # Number of cache demand accesses (Unspecified)
system.caches.controllers8.forwardToCache.m_buf_msgs     0.002562                       # Average number of messages in buffer (Unspecified)
system.caches.controllers8.forwardToCache.m_stall_time   999.817304                       # Average number of cycles messages are stalled in this MB (Unspecified)
system.caches.controllers8.power_state.pwrStateResidencyTicks::UNDEFINED  22945279000                       # Cumulative time (in ticks) in various power states (Tick)
system.caches.controllers8.requestFromCache.m_not_avail_count        21650                       # Number of times this buffer did not have N slots available (Unspecified)
system.caches.controllers8.requestFromCache.m_buf_msgs     0.005028                       # Average number of messages in buffer (Unspecified)
system.caches.controllers8.requestFromCache.m_stall_time 103001.437860                       # Average number of cycles messages are stalled in this MB (Unspecified)
system.caches.controllers8.requestFromCache.m_occupancy     0.005028                       # Average occupancy of buffer capacity (Unspecified)
system.caches.controllers8.requestToMemory.m_buf_msgs     0.003398                       # Average number of messages in buffer (Unspecified)
system.caches.controllers8.requestToMemory.m_stall_time   999.999477                       # Average number of cycles messages are stalled in this MB (Unspecified)
system.caches.controllers8.responseFromMemory.m_buf_msgs     0.003398                       # Average number of messages in buffer (Unspecified)
system.caches.controllers8.responseFromMemory.m_stall_time   999.995075                       # Average number of cycles messages are stalled in this MB (Unspecified)
system.caches.controllers8.responseToCache.m_buf_msgs     0.022717                       # Average number of messages in buffer (Unspecified)
system.caches.controllers8.responseToCache.m_stall_time  8999.952147                       # Average number of cycles messages are stalled in this MB (Unspecified)
system.caches.controllers8.xyzCacheMemory.m_demand_hits            0                       # Number of cache demand hits (Unspecified)
system.caches.controllers8.xyzCacheMemory.m_demand_misses            0                       # Number of cache demand misses (Unspecified)
system.caches.controllers8.xyzCacheMemory.m_demand_accesses            0                       # Number of cache demand accesses (Unspecified)
system.caches.controllers8.xyzStatsObject.power_state.pwrStateResidencyTicks::UNDEFINED  22945279000                       # Cumulative time (in ticks) in various power states (Tick)
system.caches.network.msg_count.Control        616110                       (Unspecified)
system.caches.network.msg_byte.Control        4928880                       (Unspecified)
system.caches.network.msg_count.Data           324782                       (Unspecified)
system.caches.network.msg_byte.Data          23384304                       (Unspecified)
system.caches.network.msg_count.Response_Data        53380                       (Unspecified)
system.caches.network.msg_byte.Response_Data      3843360                       (Unspecified)
system.caches.network.int_link_buffers102.m_buf_msgs     0.000070                       # Average number of messages in buffer (Unspecified)
system.caches.network.int_link_buffers102.m_stall_time   251.812846                       # Average number of cycles messages are stalled in this MB (Unspecified)
system.caches.network.int_link_buffers103.m_buf_msgs     0.000117                       # Average number of messages in buffer (Unspecified)
system.caches.network.int_link_buffers103.m_stall_time   252.985375                       # Average number of cycles messages are stalled in this MB (Unspecified)
system.caches.network.int_link_buffers107.m_buf_msgs     0.000000                       # Average number of messages in buffer (Unspecified)
system.caches.network.int_link_buffers107.m_stall_time   123.745848                       # Average number of cycles messages are stalled in this MB (Unspecified)
system.caches.network.int_link_buffers11.m_buf_msgs     0.000169                       # Average number of messages in buffer (Unspecified)
system.caches.network.int_link_buffers11.m_stall_time   305.353053                       # Average number of cycles messages are stalled in this MB (Unspecified)
system.caches.network.int_link_buffers114.m_buf_msgs     0.000001                       # Average number of messages in buffer (Unspecified)
system.caches.network.int_link_buffers114.m_stall_time   153.948139                       # Average number of cycles messages are stalled in this MB (Unspecified)
system.caches.network.int_link_buffers12.m_buf_msgs     0.000002                       # Average number of messages in buffer (Unspecified)
system.caches.network.int_link_buffers12.m_stall_time   250.850033                       # Average number of cycles messages are stalled in this MB (Unspecified)
system.caches.network.int_link_buffers121.m_buf_msgs     0.000025                       # Average number of messages in buffer (Unspecified)
system.caches.network.int_link_buffers121.m_stall_time   235.433659                       # Average number of cycles messages are stalled in this MB (Unspecified)
system.caches.network.int_link_buffers126.m_buf_msgs     0.025216                       # Average number of messages in buffer (Unspecified)
system.caches.network.int_link_buffers126.m_stall_time 17319.295279                       # Average number of cycles messages are stalled in this MB (Unspecified)
system.caches.network.int_link_buffers137.m_buf_msgs     0.000065                       # Average number of messages in buffer (Unspecified)
system.caches.network.int_link_buffers137.m_stall_time   239.942038                       # Average number of cycles messages are stalled in this MB (Unspecified)
system.caches.network.int_link_buffers138.m_buf_msgs     0.000105                       # Average number of messages in buffer (Unspecified)
system.caches.network.int_link_buffers138.m_stall_time   241.338273                       # Average number of cycles messages are stalled in this MB (Unspecified)
system.caches.network.int_link_buffers142.m_buf_msgs     0.000027                       # Average number of messages in buffer (Unspecified)
system.caches.network.int_link_buffers142.m_stall_time   237.912339                       # Average number of cycles messages are stalled in this MB (Unspecified)
system.caches.network.int_link_buffers149.m_buf_msgs     0.000000                       # Average number of messages in buffer (Unspecified)
system.caches.network.int_link_buffers149.m_stall_time   138.315904                       # Average number of cycles messages are stalled in this MB (Unspecified)
system.caches.network.int_link_buffers156.m_buf_msgs     0.000000                       # Average number of messages in buffer (Unspecified)
system.caches.network.int_link_buffers156.m_stall_time   139.804053                       # Average number of cycles messages are stalled in this MB (Unspecified)
system.caches.network.int_link_buffers161.m_buf_msgs     0.023259                       # Average number of messages in buffer (Unspecified)
system.caches.network.int_link_buffers161.m_stall_time 17111.456925                       # Average number of cycles messages are stalled in this MB (Unspecified)
system.caches.network.int_link_buffers169.m_buf_msgs     0.002207                       # Average number of messages in buffer (Unspecified)
system.caches.network.int_link_buffers169.m_stall_time  2997.643088                       # Average number of cycles messages are stalled in this MB (Unspecified)
system.caches.network.int_link_buffers170.m_buf_msgs     0.002246                       # Average number of messages in buffer (Unspecified)
system.caches.network.int_link_buffers170.m_stall_time 10999.940554                       # Average number of cycles messages are stalled in this MB (Unspecified)
system.caches.network.int_link_buffers176.m_buf_msgs     0.000107                       # Average number of messages in buffer (Unspecified)
system.caches.network.int_link_buffers176.m_stall_time   271.692796                       # Average number of cycles messages are stalled in this MB (Unspecified)
[...]
system.caches.controllers2.xyzStatsObjectlatency::underflows            0      0.00%      0.00% # Mem access latency (Unspecified)
system.caches.controllers2.xyzStatsObjectlatency::0-49999         2687    100.00%    100.00% # Mem access latency (Unspecified)
system.caches.controllers2.xyzStatsObjectlatency::50000-99999            0      0.00%    100.00% # Mem access latency (Unspecified)
system.caches.controllers2.xyzStatsObjectlatency::100000            0      0.00%    100.00% # Mem access latency (Unspecified)
system.caches.controllers2.xyzStatsObjectlatency::overflows            0      0.00%    100.00% # Mem access latency (Unspecified)
system.caches.controllers2.xyzStatsObjectlatency::min_value           10                       # Mem access latency (Unspecified)
system.caches.controllers2.xyzStatsObjectlatency::max_value         1016                       # Mem access latency (Unspecified)
system.caches.controllers2.xyzStatsObjectlatency::total         2687                       # Mem access latency (Unspecified)
system.caches.controllers3.xyzStatsObject.total_put            0                       # Total number of put (PutM + PutS) (Unspecified)
system.caches.controllers3.xyzStatsObject.total_put_as_wt            0                       # Total number of put as write through (Unspecified)
system.caches.controllers3.xyzStatsObject.total_putm            0                       # Total number of PutM (Unspecified)
system.caches.controllers3.xyzStatsObject.total_putm_as_wt            0                       # Total number of PutM as write through (Unspecified)
system.caches.controllers3.xyzStatsObject.total_puts            0                       # Total number of PutS (Unspecified)
system.caches.controllers3.xyzStatsObject.total_puts_as_wt            0                       # Total number of PutS as write through (Unspecified)
system.caches.controllers3.xyzStatsObject.total_repl            0                       # Total Replacement (Unspecified)
system.caches.controllers3.xyzStatsObject.total_repl_llc            0                       # Total Replacement of LLC line (Unspecified)
system.caches.controllers3.xyzStatsObject.total_repl_owned            0                       # Total Replacement of owned line (Unspecified)
system.caches.controllers3.xyzStatsObject.total_repl_shared            0                       # Total Replacement of shared line (Unspecified)
system.caches.controllers3.xyzStatsObject.wt_putRatio          nan                       # WT / Put (Unspecified)
system.caches.controllers3.xyzStatsObject.wt_putmRatio          nan                       # PutM WT / PutM (Unspecified)
system.caches.controllers3.xyzStatsObject.wt_putsRatio          nan                       # PutS WT / PutS (Unspecified)
system.caches.controllers3.xyzStatsObjectlatency::samples         2402                       # Mem access latency (Unspecified)
system.caches.controllers3.xyzStatsObjectlatency::mean   260.331391                       # Mem access latency (Unspecified)
system.caches.controllers3.xyzStatsObjectlatency::stdev   160.169868                       # Mem access latency (Unspecified)
system.caches.controllers3.xyzStatsObjectlatency::underflows            0      0.00%      0.00% # Mem access latency (Unspecified)
system.caches.controllers3.xyzStatsObjectlatency::0-49999         2402    100.00%    100.00% # Mem access latency (Unspecified)
system.caches.controllers3.xyzStatsObjectlatency::50000-99999            0      0.00%    100.00% # Mem access latency (Unspecified)
system.caches.controllers3.xyzStatsObjectlatency::100000            0      0.00%    100.00% # Mem access latency (Unspecified)
system.caches.controllers3.xyzStatsObjectlatency::overflows            0      0.00%    100.00% # Mem access latency (Unspecified)
system.caches.controllers3.xyzStatsObjectlatency::min_value           10                       # Mem access latency (Unspecified)
system.caches.controllers3.xyzStatsObjectlatency::max_value          936                       # Mem access latency (Unspecified)
system.caches.controllers3.xyzStatsObjectlatency::total         2402                       # Mem access latency (Unspecified)
system.caches.controllers4.xyzStatsObject.total_put            0                       # Total number of put (PutM + PutS) (Unspecified)
system.caches.controllers4.xyzStatsObject.total_put_as_wt            0                       # Total number of put as write through (Unspecified)
system.caches.controllers4.xyzStatsObject.total_putm            0                       # Total number of PutM (Unspecified)
system.caches.controllers4.xyzStatsObject.total_putm_as_wt            0                       # Total number of PutM as write through (Unspecified)
system.caches.controllers4.xyzStatsObject.total_puts            0                       # Total number of PutS (Unspecified)
system.caches.controllers4.xyzStatsObject.total_puts_as_wt            0                       # Total number of PutS as write through (Unspecified)
system.caches.controllers4.xyzStatsObject.total_repl            0                       # Total Replacement (Unspecified)
system.caches.controllers4.xyzStatsObject.total_repl_llc            0                       # Total Replacement of LLC line (Unspecified)
system.caches.controllers4.xyzStatsObject.total_repl_owned            0                       # Total Replacement of owned line (Unspecified)
system.caches.controllers4.xyzStatsObject.total_repl_shared            0                       # Total Replacement of shared line (Unspecified)
system.caches.controllers4.xyzStatsObject.wt_putRatio          nan                       # WT / Put (Unspecified)
system.caches.controllers4.xyzStatsObject.wt_putmRatio          nan                       # PutM WT / PutM (Unspecified)
system.caches.controllers4.xyzStatsObject.wt_putsRatio          nan                       # PutS WT / PutS (Unspecified)
system.caches.controllers4.xyzStatsObjectlatency::samples        52152                       # Mem access latency (Unspecified)
system.caches.controllers4.xyzStatsObjectlatency::mean   222.006155                       # Mem access latency (Unspecified)
system.caches.controllers4.xyzStatsObjectlatency::stdev    89.509967                       # Mem access latency (Unspecified)
system.caches.controllers4.xyzStatsObjectlatency::underflows            0      0.00%      0.00% # Mem access latency (Unspecified)
system.caches.controllers4.xyzStatsObjectlatency::0-49999        52152    100.00%    100.00% # Mem access latency (Unspecified)
system.caches.controllers4.xyzStatsObjectlatency::50000-99999            0      0.00%    100.00% # Mem access latency (Unspecified)
system.caches.controllers4.xyzStatsObjectlatency::100000            0      0.00%    100.00% # Mem access latency (Unspecified)
system.caches.controllers4.xyzStatsObjectlatency::overflows            0      0.00%    100.00% # Mem access latency (Unspecified)
system.caches.controllers4.xyzStatsObjectlatency::min_value           15                       # Mem access latency (Unspecified)
system.caches.controllers4.xyzStatsObjectlatency::max_value          697                       # Mem access latency (Unspecified)
system.caches.controllers4.xyzStatsObjectlatency::total        52152                       # Mem access latency (Unspecified)
system.caches.controllers5.xyzStatsObject.total_put            0                       # Total number of put (PutM + PutS) (Unspecified)
system.caches.controllers5.xyzStatsObject.total_put_as_wt            0                       # Total number of put as write through (Unspecified)
system.caches.controllers5.xyzStatsObject.total_putm            0                       # Total number of PutM (Unspecified)
system.caches.controllers5.xyzStatsObject.total_putm_as_wt            0                       # Total number of PutM as write through (Unspecified)
system.caches.controllers5.xyzStatsObject.total_puts            0                       # Total number of PutS (Unspecified)
system.caches.controllers5.xyzStatsObject.total_puts_as_wt            0                       # Total number of PutS as write through (Unspecified)
system.caches.controllers5.xyzStatsObject.total_repl            0                       # Total Replacement (Unspecified)
system.caches.controllers5.xyzStatsObject.total_repl_llc            0                       # Total Replacement of LLC line (Unspecified)
system.caches.controllers5.xyzStatsObject.total_repl_owned            0                       # Total Replacement of owned line (Unspecified)
system.caches.controllers5.xyzStatsObject.total_repl_shared            0                       # Total Replacement of shared line (Unspecified)
system.caches.controllers5.xyzStatsObject.wt_putRatio          nan                       # WT / Put (Unspecified)
system.caches.controllers5.xyzStatsObject.wt_putmRatio          nan                       # PutM WT / PutM (Unspecified)
system.caches.controllers5.xyzStatsObject.wt_putsRatio          nan                       # PutS WT / PutS (Unspecified)
system.caches.controllers5.xyzStatsObjectlatency::samples         2733                       # Mem access latency (Unspecified)
system.caches.controllers5.xyzStatsObjectlatency::mean   219.311379                       # Mem access latency (Unspecified)
system.caches.controllers5.xyzStatsObjectlatency::stdev   118.586906                       # Mem access latency (Unspecified)
system.caches.controllers5.xyzStatsObjectlatency::underflows            0      0.00%      0.00% # Mem access latency (Unspecified)
system.caches.controllers5.xyzStatsObjectlatency::0-49999         2733    100.00%    100.00% # Mem access latency (Unspecified)
system.caches.controllers5.xyzStatsObjectlatency::50000-99999            0      0.00%    100.00% # Mem access latency (Unspecified)
system.caches.controllers5.xyzStatsObjectlatency::100000            0      0.00%    100.00% # Mem access latency (Unspecified)
system.caches.controllers5.xyzStatsObjectlatency::overflows            0      0.00%    100.00% # Mem access latency (Unspecified)
system.caches.controllers5.xyzStatsObjectlatency::min_value           18                       # Mem access latency (Unspecified)
system.caches.controllers5.xyzStatsObjectlatency::max_value          621                       # Mem access latency (Unspecified)
system.caches.controllers5.xyzStatsObjectlatency::total         2733                       # Mem access latency (Unspecified)
system.caches.controllers6.xyzStatsObject.total_put            0                       # Total number of put (PutM + PutS) (Unspecified)
system.caches.controllers6.xyzStatsObject.total_put_as_wt            0                       # Total number of put as write through (Unspecified)
system.caches.controllers6.xyzStatsObject.total_putm            0                       # Total number of PutM (Unspecified)
system.caches.controllers6.xyzStatsObject.total_putm_as_wt            0                       # Total number of PutM as write through (Unspecified)
system.caches.controllers6.xyzStatsObject.total_puts            0                       # Total number of PutS (Unspecified)
system.caches.controllers6.xyzStatsObject.total_puts_as_wt            0                       # Total number of PutS as write through (Unspecified)
system.caches.controllers6.xyzStatsObject.total_repl            0                       # Total Replacement (Unspecified)
system.caches.controllers6.xyzStatsObject.total_repl_llc            0                       # Total Replacement of LLC line (Unspecified)
system.caches.controllers6.xyzStatsObject.total_repl_owned            0                       # Total Replacement of owned line (Unspecified)
system.caches.controllers6.xyzStatsObject.total_repl_shared            0                       # Total Replacement of shared line (Unspecified)
system.caches.controllers6.xyzStatsObject.wt_putRatio          nan                       # WT / Put (Unspecified)
system.caches.controllers6.xyzStatsObject.wt_putmRatio          nan                       # PutM WT / PutM (Unspecified)
system.caches.controllers6.xyzStatsObject.wt_putsRatio          nan                       # PutS WT / PutS (Unspecified)
system.caches.controllers6.xyzStatsObjectlatency::samples         2532                       # Mem access latency (Unspecified)
system.caches.controllers6.xyzStatsObjectlatency::mean   174.681675                       # Mem access latency (Unspecified)
system.caches.controllers6.xyzStatsObjectlatency::stdev   120.928359                       # Mem access latency (Unspecified)
system.caches.controllers6.xyzStatsObjectlatency::underflows            0      0.00%      0.00% # Mem access latency (Unspecified)
system.caches.controllers6.xyzStatsObjectlatency::0-49999         2532    100.00%    100.00% # Mem access latency (Unspecified)
system.caches.controllers6.xyzStatsObjectlatency::50000-99999            0      0.00%    100.00% # Mem access latency (Unspecified)
system.caches.controllers6.xyzStatsObjectlatency::100000            0      0.00%    100.00% # Mem access latency (Unspecified)
system.caches.controllers6.xyzStatsObjectlatency::overflows            0      0.00%    100.00% # Mem access latency (Unspecified)
system.caches.controllers6.xyzStatsObjectlatency::min_value           15                       # Mem access latency (Unspecified)
system.caches.controllers6.xyzStatsObjectlatency::max_value          659                       # Mem access latency (Unspecified)
system.caches.controllers6.xyzStatsObjectlatency::total         2532                       # Mem access latency (Unspecified)
system.caches.controllers7.xyzStatsObject.total_put            0                       # Total number of put (PutM + PutS) (Unspecified)
system.caches.controllers7.xyzStatsObject.total_put_as_wt            0                       # Total number of put as write through (Unspecified)
system.caches.controllers7.xyzStatsObject.total_putm            0                       # Total number of PutM (Unspecified)
system.caches.controllers7.xyzStatsObject.total_putm_as_wt            0                       # Total number of PutM as write through (Unspecified)
system.caches.controllers7.xyzStatsObject.total_puts            0                       # Total number of PutS (Unspecified)
system.caches.controllers7.xyzStatsObject.total_puts_as_wt            0                       # Total number of PutS as write through (Unspecified)
system.caches.controllers7.xyzStatsObject.total_repl            0                       # Total Replacement (Unspecified)
system.caches.controllers7.xyzStatsObject.total_repl_llc            0                       # Total Replacement of LLC line (Unspecified)
system.caches.controllers7.xyzStatsObject.total_repl_owned            0                       # Total Replacement of owned line (Unspecified)
system.caches.controllers7.xyzStatsObject.total_repl_shared            0                       # Total Replacement of shared line (Unspecified)
system.caches.controllers7.xyzStatsObject.wt_putRatio          nan                       # WT / Put (Unspecified)
system.caches.controllers7.xyzStatsObject.wt_putmRatio          nan                       # PutM WT / PutM (Unspecified)
system.caches.controllers7.xyzStatsObject.wt_putsRatio          nan                       # PutS WT / PutS (Unspecified)
system.caches.controllers7.xyzStatsObjectlatency::samples         2368                       # Mem access latency (Unspecified)
system.caches.controllers7.xyzStatsObjectlatency::mean   187.444679                       # Mem access latency (Unspecified)
system.caches.controllers7.xyzStatsObjectlatency::stdev   121.173258                       # Mem access latency (Unspecified)
system.caches.controllers7.xyzStatsObjectlatency::underflows            0      0.00%      0.00% # Mem access latency (Unspecified)
system.caches.controllers7.xyzStatsObjectlatency::0-49999         2368    100.00%    100.00% # Mem access latency (Unspecified)
system.caches.controllers7.xyzStatsObjectlatency::50000-99999            0      0.00%    100.00% # Mem access latency (Unspecified)
system.caches.controllers7.xyzStatsObjectlatency::100000            0      0.00%    100.00% # Mem access latency (Unspecified)
system.caches.controllers7.xyzStatsObjectlatency::overflows            0      0.00%    100.00% # Mem access latency (Unspecified)
system.caches.controllers7.xyzStatsObjectlatency::min_value           15                       # Mem access latency (Unspecified)
system.caches.controllers7.xyzStatsObjectlatency::max_value          615                       # Mem access latency (Unspecified)
system.caches.controllers7.xyzStatsObjectlatency::total         2368                       # Mem access latency (Unspecified)
system.caches.controllers8.xyzStatsObject.total_put        57415                       # Total number of put (PutM + PutS) (Unspecified)
system.caches.controllers8.xyzStatsObject.total_put_as_wt        46741                       # Total number of put as write through (Unspecified)
system.caches.controllers8.xyzStatsObject.total_putm        10825                       # Total number of PutM (Unspecified)
system.caches.controllers8.xyzStatsObject.total_putm_as_wt         9328                       # Total number of PutM as write through (Unspecified)
system.caches.controllers8.xyzStatsObject.total_puts        46590                       # Total number of PutS (Unspecified)
system.caches.controllers8.xyzStatsObject.total_puts_as_wt        37413                       # Total number of PutS as write through (Unspecified)
system.caches.controllers8.xyzStatsObject.total_repl            0                       # Total Replacement (Unspecified)
system.caches.controllers8.xyzStatsObject.total_repl_llc            0                       # Total Replacement of LLC line (Unspecified)
system.caches.controllers8.xyzStatsObject.total_repl_owned            0                       # Total Replacement of owned line (Unspecified)
system.caches.controllers8.xyzStatsObject.total_repl_shared            0                       # Total Replacement of shared line (Unspecified)
system.caches.controllers8.xyzStatsObject.wt_putRatio     0.814090                       # WT / Put (Unspecified)
system.caches.controllers8.xyzStatsObject.wt_putmRatio     0.861709                       # PutM WT / PutM (Unspecified)
system.caches.controllers8.xyzStatsObject.wt_putsRatio     0.803026                       # PutS WT / PutS (Unspecified)
system.caches.controllers8.xyzStatsObjectlatency::samples            0                       # Mem access latency (Unspecified)
system.caches.controllers8.xyzStatsObjectlatency::mean          nan                       # Mem access latency (Unspecified)
system.caches.controllers8.xyzStatsObjectlatency::stdev          nan                       # Mem access latency (Unspecified)
system.caches.controllers8.xyzStatsObjectlatency::underflows            0                       # Mem access latency (Unspecified)
system.caches.controllers8.xyzStatsObjectlatency::0-49999            0                       # Mem access latency (Unspecified)
system.caches.controllers8.xyzStatsObjectlatency::50000-99999            0                       # Mem access latency (Unspecified)
system.caches.controllers8.xyzStatsObjectlatency::100000            0                       # Mem access latency (Unspecified)
system.caches.controllers8.xyzStatsObjectlatency::overflows            0                       # Mem access latency (Unspecified)
system.caches.controllers8.xyzStatsObjectlatency::min_value            0                       # Mem access latency (Unspecified)
system.caches.controllers8.xyzStatsObjectlatency::max_value            0                       # Mem access latency (Unspecified)
system.caches.controllers8.xyzStatsObjectlatency::total            0                       # Mem access latency (Unspecified)

---------- End Simulation Statistics   ----------
