
---------- Begin Simulation Statistics ----------
simSeconds                                   0.023097                       # Number of seconds simulated (Second)
simTicks                                  23096703000                       # Number of ticks simulated (Tick)
finalTick                                 23096703000                       # Number of ticks from beginning of simulation (restored from checkpoints and never reset) (Tick)
simFreq                                  1000000000000                       # The number of ticks per simulated second ((Tick/Second))
hostSeconds                                     34.90                       # Real time elapsed on the host (Second)
hostTickRate                                661799786                       # The number of ticks simulated per host second (ticks/s) ((Tick/Second))
hostMemory                                    5206880                       # Number of bytes of host memory used (Byte)
simInsts                                      3051192                       # Number of instructions simulated (Count)
simOps                                        5092086                       # Number of ops (including micro ops) simulated (Count)
hostInstRate                                    87421                       # Simulator instruction rate (inst/s) ((Count/Second))
hostOpRate                                     145895                       # Simulator op (including micro ops) rate (op/s) ((Count/Second))
system.caches.m_outstandReqHistSeqr::bucket_size            1                       (Unspecified)
system.caches.m_outstandReqHistSeqr::max_bucket            9                       (Unspecified)
system.caches.m_outstandReqHistSeqr::samples      5193476                       (Unspecified)
system.caches.m_outstandReqHistSeqr::mean            1                       (Unspecified)
system.caches.m_outstandReqHistSeqr::gmean            1                       (Unspecified)
system.caches.m_outstandReqHistSeqr      |           0      0.00%      0.00% |     5193476    100.00%    100.00% |           0      0.00%    100.00% |           0      0.00%    100.00% |           0      0.00%    100.00% |           0      0.00%    100.00% |           0      0.00%    100.00% |           0      0.00%    100.00% |           0      0.00%    100.00% |           0      0.00%    100.00% (Unspecified)
system.caches.m_outstandReqHistSeqr::total      5193476                       (Unspecified)
system.caches.m_latencyHistSeqr::bucket_size          128                       (Unspecified)
system.caches.m_latencyHistSeqr::max_bucket         1279                       (Unspecified)
system.caches.m_latencyHistSeqr::samples      5193476                       (Unspecified)
system.caches.m_latencyHistSeqr::mean        4.038510                       (Unspecified)
system.caches.m_latencyHistSeqr::gmean       1.084115                       (Unspecified)
system.caches.m_latencyHistSeqr::stdev      29.855067                       (Unspecified)
system.caches.m_latencyHistSeqr          |     5138717     98.95%     98.95% |       23954      0.46%     99.41% |       27225      0.52%     99.93% |        2079      0.04%     99.97% |        1127      0.02%     99.99% |         327      0.01%    100.00% |          44      0.00%    100.00% |           3      0.00%    100.00% |           0      0.00%    100.00% |           0      0.00%    100.00% (Unspecified)
system.caches.m_latencyHistSeqr::total        5193476                       (Unspecified)
system.caches.m_hitLatencyHistSeqr::bucket_size            1                       (Unspecified)
system.caches.m_hitLatencyHistSeqr::max_bucket            9                       (Unspecified)
system.caches.m_hitLatencyHistSeqr::samples      5094537                       (Unspecified)
system.caches.m_hitLatencyHistSeqr::mean            1                       (Unspecified)
system.caches.m_hitLatencyHistSeqr::gmean            1                       (Unspecified)
system.caches.m_hitLatencyHistSeqr       |           0      0.00%      0.00% |     5094537    100.00%    100.00% |           0      0.00%    100.00% |           0      0.00%    100.00% |           0      0.00%    100.00% |           0      0.00%    100.00% |           0      0.00%    100.00% |           0      0.00%    100.00% |           0      0.00%    100.00% |           0      0.00%    100.00% (Unspecified)
system.caches.m_hitLatencyHistSeqr::total      5094537                       (Unspecified)
system.caches.m_missLatencyHistSeqr::bucket_size          128                       (Unspecified)
system.caches.m_missLatencyHistSeqr::max_bucket         1279                       (Unspecified)
system.caches.m_missLatencyHistSeqr::samples        98939                       (Unspecified)
system.caches.m_missLatencyHistSeqr::mean   160.496558                       (Unspecified)
system.caches.m_missLatencyHistSeqr::gmean    69.369440                       (Unspecified)
system.caches.m_missLatencyHistSeqr::stdev   147.759453                       (Unspecified)
system.caches.m_missLatencyHistSeqr      |       44180     44.65%     44.65% |       23954     24.21%     68.86% |       27225     27.52%     96.38% |        2079      2.10%     98.48% |        1127      1.14%     99.62% |         327      0.33%     99.95% |          44      0.04%    100.00% |           3      0.00%    100.00% |           0      0.00%    100.00% |           0      0.00%    100.00% (Unspecified)
system.caches.m_missLatencyHistSeqr::total        98939                       (Unspecified)
system.caches.L0Cache_Controller.Load    |      724981     89.24%     89.24% |       30074      3.70%     92.94% |       28957      3.56%     96.51% |       28357      3.49%    100.00% (Unspecified)
system.caches.L0Cache_Controller.Load::total       812369                       (Unspecified)
system.caches.L0Cache_Controller.Ifetch  |     3788786     93.68%     93.68% |       88828      2.20%     95.87% |       84602      2.09%     97.97% |       82256      2.03%    100.00% (Unspecified)
system.caches.L0Cache_Controller.Ifetch::total      4044472                       (Unspecified)
system.caches.L0Cache_Controller.Store   |      310148     92.13%     92.13% |        9349      2.78%     94.91% |        8728      2.59%     97.50% |        8410      2.50%    100.00% (Unspecified)
system.caches.L0Cache_Controller.Store::total       336635                       (Unspecified)
system.caches.L0Cache_Controller.Replacement |       74760     91.32%     91.32% |        2699      3.30%     94.61% |        2365      2.89%     97.50% |        2046      2.50%    100.00% (Unspecified)
system.caches.L0Cache_Controller.Replacement::total        81870                       (Unspecified)
system.caches.L0Cache_Controller.Inv     |       42219     89.59%     89.59% |        1770      3.76%     93.35% |        1601      3.40%     96.74% |        1535      3.26%    100.00% (Unspecified)
system.caches.L0Cache_Controller.Inv::total        47125                       (Unspecified)
system.caches.L0Cache_Controller.Data    |       88066     91.67%     91.67% |        2992      3.11%     94.78% |        2639      2.75%     97.53% |        2372      2.47%    100.00% (Unspecified)
system.caches.L0Cache_Controller.Data::total        96069                       (Unspecified)
system.caches.L0Cache_Controller.ExData  |        2711     94.46%     94.46% |          74      2.58%     97.04% |          55      1.92%     98.95% |          30      1.05%    100.00% (Unspecified)
system.caches.L0Cache_Controller.ExData::total         2870                       (Unspecified)
system.caches.L0Cache_Controller.I.Load  |       52487     91.56%     91.56% |        1838      3.21%     94.76% |        1584      2.76%     97.53% |        1418      2.47%    100.00% (Unspecified)
system.caches.L0Cache_Controller.I.Load::total        57327                       (Unspecified)
system.caches.L0Cache_Controller.I.Ifetch |       23814     95.89%     95.89% |         425      1.71%     97.60% |         346      1.39%     98.99% |         250      1.01%    100.00% (Unspecified)
system.caches.L0Cache_Controller.I.Ifetch::total        24835                       (Unspecified)
system.caches.L0Cache_Controller.I.Store |       13384     85.70%     85.70% |         773      4.95%     90.65% |         742      4.75%     95.40% |         718      4.60%    100.00% (Unspecified)
system.caches.L0Cache_Controller.I.Store::total        15617                       (Unspecified)
system.caches.L0Cache_Controller.I.Inv   |       27416     86.54%     86.54% |        1547      4.88%     91.43% |        1406      4.44%     95.86% |        1310      4.14%    100.00% (Unspecified)
system.caches.L0Cache_Controller.I.Inv::total        31679                       (Unspecified)
system.caches.L0Cache_Controller.IS_D.Data |       73590     92.81%     92.81% |        2189      2.76%     95.57% |        1875      2.36%     97.93% |        1638      2.07%    100.00% (Unspecified)
system.caches.L0Cache_Controller.IS_D.Data::total        79292                       (Unspecified)
system.caches.L0Cache_Controller.IS_D.ExData |        2711     94.46%     94.46% |          74      2.58%     97.04% |          55      1.92%     98.95% |          30      1.05%    100.00% (Unspecified)
system.caches.L0Cache_Controller.IS_D.ExData::total         2870                       (Unspecified)
system.caches.L0Cache_Controller.IM_D.Data |       14476     86.28%     86.28% |         803      4.79%     91.07% |         764      4.55%     95.62% |         734      4.38%    100.00% (Unspecified)
system.caches.L0Cache_Controller.IM_D.Data::total        16777                       (Unspecified)
system.caches.L0Cache_Controller.S.Load  |      331222     94.54%     94.54% |        6713      1.92%     96.46% |        6352      1.81%     98.27% |        6049      1.73%    100.00% (Unspecified)
system.caches.L0Cache_Controller.S.Load::total       350336                       (Unspecified)
system.caches.L0Cache_Controller.S.Ifetch |     3764972     93.66%     93.66% |       88403      2.20%     95.86% |       84256      2.10%     97.96% |       82006      2.04%    100.00% (Unspecified)
system.caches.L0Cache_Controller.S.Ifetch::total      4019637                       (Unspecified)
system.caches.L0Cache_Controller.S.Store |        1092     94.14%     94.14% |          30      2.59%     96.72% |          22      1.90%     98.62% |          16      1.38%    100.00% (Unspecified)
system.caches.L0Cache_Controller.S.Store::total         1160                       (Unspecified)
system.caches.L0Cache_Controller.S.Replacement |       59712     92.36%     92.36% |        1893      2.93%     95.29% |        1614      2.50%     97.78% |        1434      2.22%    100.00% (Unspecified)
system.caches.L0Cache_Controller.S.Replacement::total        64653                       (Unspecified)
system.caches.L0Cache_Controller.S.Inv   |       12692     96.84%     96.84% |         171      1.30%     98.15% |         148      1.13%     99.28% |          95      0.72%    100.00% (Unspecified)
system.caches.L0Cache_Controller.S.Inv::total        13106                       (Unspecified)
system.caches.L0Cache_Controller.M.Load  |      341272     84.33%     84.33% |       21523      5.32%     89.64% |       21021      5.19%     94.84% |       20890      5.16%    100.00% (Unspecified)
system.caches.L0Cache_Controller.M.Load::total       404706                       (Unspecified)
system.caches.L0Cache_Controller.M.Store |      295672     92.44%     92.44% |        8546      2.67%     95.11% |        7964      2.49%     97.60% |        7676      2.40%    100.00% (Unspecified)
system.caches.L0Cache_Controller.M.Store::total       319858                       (Unspecified)
system.caches.L0Cache_Controller.M.Replacement |       15048     87.40%     87.40% |         806      4.68%     92.08% |         751      4.36%     96.45% |         612      3.55%    100.00% (Unspecified)
system.caches.L0Cache_Controller.M.Replacement::total        17217                       (Unspecified)
system.caches.L0Cache_Controller.M.Inv   |        2111     90.21%     90.21% |          52      2.22%     92.44% |          47      2.01%     94.44% |         130      5.56%    100.00% (Unspecified)
system.caches.L0Cache_Controller.M.Inv::total         2340                       (Unspecified)
system.caches.L1Cache_Controller.Load    |       76301     92.87%     92.87% |        2263      2.75%     95.62% |        1930      2.35%     97.97% |        1668      2.03%    100.00% (Unspecified)
system.caches.L1Cache_Controller.Load::total        82162                       (Unspecified)
system.caches.L1Cache_Controller.Store   |       14476     86.28%     86.28% |         803      4.79%     91.07% |         764      4.55%     95.62% |         734      4.38%    100.00% (Unspecified)
system.caches.L1Cache_Controller.Store::total        16777                       (Unspecified)
system.caches.L1Cache_Controller.PutM    |       15048     87.40%     87.40% |         806      4.68%     92.08% |         751      4.36%     96.45% |         612      3.55%    100.00% (Unspecified)
system.caches.L1Cache_Controller.PutM::total        17217                       (Unspecified)
system.caches.L1Cache_Controller.Replacement |      105363     91.19%     91.19% |        3684      3.19%     94.38% |        3488      3.02%     97.40% |        3005      2.60%    100.00% (Unspecified)
system.caches.L1Cache_Controller.Replacement::total       115540                       (Unspecified)
system.caches.L1Cache_Controller.FwdGetM |          74      3.61%      3.61% |         672     32.78%     36.39% |         584     28.49%     64.88% |         720     35.12%    100.00% (Unspecified)
system.caches.L1Cache_Controller.FwdGetM::total         2050                       (Unspecified)
system.caches.L1Cache_Controller.Inv     |           0      0.00%      0.00% |           5     25.00%     25.00% |           9     45.00%     70.00% |           6     30.00%    100.00% (Unspecified)
system.caches.L1Cache_Controller.Inv::total           20                       (Unspecified)
system.caches.L1Cache_Controller.PutAck  |       50598     91.00%     91.00% |        1814      3.26%     94.26% |        1713      3.08%     97.35% |        1476      2.65%    100.00% (Unspecified)
system.caches.L1Cache_Controller.PutAck::total        55601                       (Unspecified)
system.caches.L1Cache_Controller.DataDirNoAcks |       51535     88.96%     88.96% |        2727      4.71%     93.67% |        1893      3.27%     96.94% |        1775      3.06%    100.00% (Unspecified)
system.caches.L1Cache_Controller.DataDirNoAcks::total        57930                       (Unspecified)
system.caches.L1Cache_Controller.DataOwner |         613     32.83%     32.83% |          18      0.96%     33.80% |         653     34.98%     68.77% |         583     31.23%    100.00% (Unspecified)
system.caches.L1Cache_Controller.DataOwner::total         1867                       (Unspecified)
system.caches.L1Cache_Controller.InvAck  |          14     70.00%     70.00% |           6     30.00%    100.00% |           0      0.00%    100.00% |           0      0.00%    100.00% (Unspecified)
system.caches.L1Cache_Controller.InvAck::total           20                       (Unspecified)
system.caches.L1Cache_Controller.WB_Data |        2111     90.21%     90.21% |          52      2.22%     92.44% |          47      2.01%     94.44% |         130      5.56%    100.00% (Unspecified)
system.caches.L1Cache_Controller.WB_Data::total         2340                       (Unspecified)
system.caches.L1Cache_Controller.I.Load  |       41579     88.51%     88.51% |        1968      4.19%     92.70% |        1799      3.83%     96.53% |        1629      3.47%    100.00% (Unspecified)
system.caches.L1Cache_Controller.I.Load::total        46975                       (Unspecified)
system.caches.L1Cache_Controller.I.Store |        9315     81.03%     81.03% |         743      6.46%     87.49% |         725      6.31%     93.80% |         713      6.20%    100.00% (Unspecified)
system.caches.L1Cache_Controller.I.Store::total        11496                       (Unspecified)
system.caches.L1Cache_Controller.IS_D.DataDirNoAcks |       41577     88.59%     88.59% |        1956      4.17%     92.76% |        1781      3.80%     96.56% |        1616      3.44%    100.00% (Unspecified)
system.caches.L1Cache_Controller.IS_D.DataDirNoAcks::total        46930                       (Unspecified)
system.caches.L1Cache_Controller.IS_D.DataOwner |           2      4.44%      4.44% |          12     26.67%     31.11% |          18     40.00%     71.11% |          13     28.89%    100.00% (Unspecified)
system.caches.L1Cache_Controller.IS_D.DataOwner::total           45                       (Unspecified)
system.caches.L1Cache_Controller.IM_AD.DataDirNoAcks |        8704     89.97%     89.97% |         737      7.62%     97.59% |          90      0.93%     98.52% |         143      1.48%    100.00% (Unspecified)
system.caches.L1Cache_Controller.IM_AD.DataDirNoAcks::total         9674                       (Unspecified)
system.caches.L1Cache_Controller.IM_AD.DataOwner |         611     33.53%     33.53% |           6      0.33%     33.86% |         635     34.85%     68.72% |         570     31.28%    100.00% (Unspecified)
system.caches.L1Cache_Controller.IM_AD.DataOwner::total         1822                       (Unspecified)
system.caches.L1Cache_Controller.IM_AD.InvAck |           7     70.00%     70.00% |           3     30.00%    100.00% |           0      0.00%    100.00% |           0      0.00%    100.00% (Unspecified)
system.caches.L1Cache_Controller.IM_AD.InvAck::total           10                       (Unspecified)
system.caches.L1Cache_Controller.S.Load  |       32013     98.92%     98.92% |         233      0.72%     99.64% |          94      0.29%     99.93% |          22      0.07%    100.00% (Unspecified)
system.caches.L1Cache_Controller.S.Load::total        32362                       (Unspecified)
system.caches.L1Cache_Controller.S.Store |        1254     94.57%     94.57% |          34      2.56%     97.13% |          22      1.66%     98.79% |          16      1.21%    100.00% (Unspecified)
system.caches.L1Cache_Controller.S.Store::total         1326                       (Unspecified)
system.caches.L1Cache_Controller.S.Replacement |       40108     89.60%     89.60% |        1713      3.83%     93.42% |        1545      3.45%     96.87% |        1399      3.13%    100.00% (Unspecified)
system.caches.L1Cache_Controller.S.Replacement::total        44765                       (Unspecified)
system.caches.L1Cache_Controller.S.Inv   |           0      0.00%      0.00% |           5     25.00%     25.00% |           9     45.00%     70.00% |           6     30.00%    100.00% (Unspecified)
system.caches.L1Cache_Controller.S.Inv::total           20                       (Unspecified)
system.caches.L1Cache_Controller.SM_AD.DataDirNoAcks |        1254     94.57%     94.57% |          34      2.56%     97.13% |          22      1.66%     98.79% |          16      1.21%    100.00% (Unspecified)
system.caches.L1Cache_Controller.SM_AD.DataDirNoAcks::total         1326                       (Unspecified)
system.caches.L1Cache_Controller.SM_AD.InvAck |           7     70.00%     70.00% |           3     30.00%    100.00% |           0      0.00%    100.00% |           0      0.00%    100.00% (Unspecified)
system.caches.L1Cache_Controller.SM_AD.InvAck::total           10                       (Unspecified)
system.caches.L1Cache_Controller.M.Load  |        2709     95.89%     95.89% |          62      2.19%     98.09% |          37      1.31%     99.40% |          17      0.60%    100.00% (Unspecified)
system.caches.L1Cache_Controller.M.Load::total         2825                       (Unspecified)
system.caches.L1Cache_Controller.M.Store |        3907     98.79%     98.79% |          26      0.66%     99.44% |          17      0.43%     99.87% |           5      0.13%    100.00% (Unspecified)
system.caches.L1Cache_Controller.M.Store::total         3955                       (Unspecified)
system.caches.L1Cache_Controller.M.Replacement |       10490     96.81%     96.81% |         101      0.93%     97.74% |         168      1.55%     99.29% |          77      0.71%    100.00% (Unspecified)
system.caches.L1Cache_Controller.M.Replacement::total        10836                       (Unspecified)
system.caches.L1Cache_Controller.M.FwdGetM |          40      2.14%      2.14% |         647     34.65%     36.80% |         566     30.32%     67.11% |         614     32.89%    100.00% (Unspecified)
system.caches.L1Cache_Controller.M.FwdGetM::total         1867                       (Unspecified)
system.caches.L1Cache_Controller.M_P.PutM |       15048     87.40%     87.40% |         806      4.68%     92.08% |         751      4.36%     96.45% |         612      3.55%    100.00% (Unspecified)
system.caches.L1Cache_Controller.M_P.PutM::total        17217                       (Unspecified)
system.caches.L1Cache_Controller.M_P.Replacement |        2077     96.25%     96.25% |          27      1.25%     97.50% |          30      1.39%     98.89% |          24      1.11%    100.00% (Unspecified)
system.caches.L1Cache_Controller.M_P.Replacement::total         2158                       (Unspecified)
system.caches.L1Cache_Controller.M_P.FwdGetM |          34     18.68%     18.68% |          25     13.74%     32.42% |          17      9.34%     41.76% |         106     58.24%    100.00% (Unspecified)
system.caches.L1Cache_Controller.M_P.FwdGetM::total          182                       (Unspecified)
system.caches.L1Cache_Controller.MP_D.Replacement |        2077     96.25%     96.25% |          27      1.25%     97.50% |          30      1.39%     98.89% |          24      1.11%    100.00% (Unspecified)
system.caches.L1Cache_Controller.MP_D.Replacement::total         2158                       (Unspecified)
system.caches.L1Cache_Controller.MP_D.FwdGetM |           0      0.00%      0.00% |           0      0.00%      0.00% |           1    100.00%    100.00% |           0      0.00%    100.00% (Unspecified)
system.caches.L1Cache_Controller.MP_D.FwdGetM::total            1                       (Unspecified)
system.caches.L1Cache_Controller.MP_D.WB_Data |        2111     90.21%     90.21% |          52      2.22%     92.44% |          47      2.01%     94.44% |         130      5.56%    100.00% (Unspecified)
system.caches.L1Cache_Controller.MP_D.WB_Data::total         2340                       (Unspecified)
system.caches.L1Cache_Controller.MI_A.Replacement |       10492     96.80%     96.80% |         101      0.93%     97.73% |         169      1.56%     99.29% |          77      0.71%    100.00% (Unspecified)
system.caches.L1Cache_Controller.MI_A.Replacement::total        10839                       (Unspecified)
system.caches.L1Cache_Controller.MI_A.PutAck |       10490     96.81%     96.81% |         101      0.93%     97.74% |         168      1.55%     99.29% |          77      0.71%    100.00% (Unspecified)
system.caches.L1Cache_Controller.MI_A.PutAck::total        10836                       (Unspecified)
system.caches.L1Cache_Controller.SI_A.Replacement |       40119     89.58%     89.58% |        1715      3.83%     93.41% |        1546      3.45%     96.86% |        1404      3.14%    100.00% (Unspecified)
system.caches.L1Cache_Controller.SI_A.Replacement::total        44784                       (Unspecified)
system.caches.L1Cache_Controller.SI_A.PutAck |       40108     89.60%     89.60% |        1713      3.83%     93.42% |        1545      3.45%     96.87% |        1399      3.13%    100.00% (Unspecified)
system.caches.L1Cache_Controller.SI_A.PutAck::total        44765                       (Unspecified)
system.caches.Directory_Controller.GetS         46975      0.00%      0.00% (Unspecified)
system.caches.Directory_Controller.GetM         12822      0.00%      0.00% (Unspecified)
system.caches.Directory_Controller.PutSNotLast         3923      0.00%      0.00% (Unspecified)
system.caches.Directory_Controller.PutSLast         4787      0.00%      0.00% (Unspecified)
system.caches.Directory_Controller.PutSLastWT        36055      0.00%      0.00% (Unspecified)
system.caches.Directory_Controller.PutMOwner         1431      0.00%      0.00% (Unspecified)
system.caches.Directory_Controller.PutMOwnerWT         9405      0.00%      0.00% (Unspecified)
system.caches.Directory_Controller.Sync          1966      0.00%      0.00% (Unspecified)
system.caches.Directory_Controller.MemData        31701      0.00%      0.00% (Unspecified)
system.caches.Directory_Controller.LastMemAck        47426      0.00%      0.00% (Unspecified)
system.caches.Directory_Controller.I.GetS        25523      0.00%      0.00% (Unspecified)
system.caches.Directory_Controller.I.GetM         6178      0.00%      0.00% (Unspecified)
system.caches.Directory_Controller.S.GetS         4325      0.00%      0.00% (Unspecified)
system.caches.Directory_Controller.S.GetM         1331      0.00%      0.00% (Unspecified)
system.caches.Directory_Controller.S.PutSNotLast         3923      0.00%      0.00% (Unspecified)
system.caches.Directory_Controller.S.PutSLast         4787      0.00%      0.00% (Unspecified)
system.caches.Directory_Controller.S.PutSLastWT        36055      0.00%      0.00% (Unspecified)
system.caches.Directory_Controller.M.GetS           45      0.00%      0.00% (Unspecified)
system.caches.Directory_Controller.M.GetM         1822      0.00%      0.00% (Unspecified)
system.caches.Directory_Controller.M.PutMOwner         1431      0.00%      0.00% (Unspecified)
system.caches.Directory_Controller.M.PutMOwnerWT         9405      0.00%      0.00% (Unspecified)
system.caches.Directory_Controller.LLCOnly.GetS        17082      0.00%      0.00% (Unspecified)
system.caches.Directory_Controller.LLCOnly.GetM         3491      0.00%      0.00% (Unspecified)
system.caches.Directory_Controller.LLCOnly.Sync         1966      0.00%      0.00% (Unspecified)
system.caches.Directory_Controller.LLCOnly_m.LastMemAck        38021      0.00%      0.00% (Unspecified)
system.caches.Directory_Controller.S_m.MemData        25523      0.00%      0.00% (Unspecified)
system.caches.Directory_Controller.M_m.MemData         6178      0.00%      0.00% (Unspecified)
system.caches.Directory_Controller.MI_m.LastMemAck         9405      0.00%      0.00% (Unspecified)
system.caches.RequestType.LD.latency_hist_seqr::bucket_size          128                       (Unspecified)
system.caches.RequestType.LD.latency_hist_seqr::max_bucket         1279                       (Unspecified)
system.caches.RequestType.LD.latency_hist_seqr::samples       812369                       (Unspecified)
system.caches.RequestType.LD.latency_hist_seqr::mean    12.169823                       (Unspecified)
system.caches.RequestType.LD.latency_hist_seqr::gmean     1.347219                       (Unspecified)
system.caches.RequestType.LD.latency_hist_seqr::stdev    56.283586                       (Unspecified)
system.caches.RequestType.LD.latency_hist_seqr |      780883     96.12%     96.12% |       13888      1.71%     97.83% |       15774      1.94%     99.78% |        1018      0.13%     99.90% |         602      0.07%     99.97% |         177      0.02%    100.00% |          25      0.00%    100.00% |           2      0.00%    100.00% |           0      0.00%    100.00% |           0      0.00%    100.00% (Unspecified)
system.caches.RequestType.LD.latency_hist_seqr::total       812369                       (Unspecified)
system.caches.RequestType.LD.hit_latency_hist_seqr::bucket_size            1                       (Unspecified)
system.caches.RequestType.LD.hit_latency_hist_seqr::max_bucket            9                       (Unspecified)
system.caches.RequestType.LD.hit_latency_hist_seqr::samples       755042                       (Unspecified)
system.caches.RequestType.LD.hit_latency_hist_seqr::mean            1                       (Unspecified)
system.caches.RequestType.LD.hit_latency_hist_seqr::gmean            1                       (Unspecified)
system.caches.RequestType.LD.hit_latency_hist_seqr |           0      0.00%      0.00% |      755042    100.00%    100.00% |           0      0.00%    100.00% |           0      0.00%    100.00% |           0      0.00%    100.00% |           0      0.00%    100.00% |           0      0.00%    100.00% |           0      0.00%    100.00% |           0      0.00%    100.00% |           0      0.00%    100.00% (Unspecified)
system.caches.RequestType.LD.hit_latency_hist_seqr::total       755042                       (Unspecified)
system.caches.RequestType.LD.miss_latency_hist_seqr::bucket_size          128                       (Unspecified)
system.caches.RequestType.LD.miss_latency_hist_seqr::max_bucket         1279                       (Unspecified)
system.caches.RequestType.LD.miss_latency_hist_seqr::samples        57327                       (Unspecified)
system.caches.RequestType.LD.miss_latency_hist_seqr::mean   159.285241                       (Unspecified)
system.caches.RequestType.LD.miss_latency_hist_seqr::gmean    68.271552                       (Unspecified)
system.caches.RequestType.LD.miss_latency_hist_seqr::stdev   146.986233                       (Unspecified)
system.caches.RequestType.LD.miss_latency_hist_seqr |       25841     45.08%     45.08% |       13888     24.23%     69.30% |       15774     27.52%     96.82% |        1018      1.78%     98.59% |         602      1.05%     99.64% |         177      0.31%     99.95% |          25      0.04%    100.00% |           2      0.00%    100.00% |           0      0.00%    100.00% |           0      0.00%    100.00% (Unspecified)
system.caches.RequestType.LD.miss_latency_hist_seqr::total        57327                       (Unspecified)
system.caches.RequestType.ST.latency_hist_seqr::bucket_size          128                       (Unspecified)
system.caches.RequestType.ST.latency_hist_seqr::max_bucket         1279                       (Unspecified)
system.caches.RequestType.ST.latency_hist_seqr::samples       290569                       (Unspecified)
system.caches.RequestType.ST.latency_hist_seqr::mean    10.379325                       (Unspecified)
system.caches.RequestType.ST.latency_hist_seqr::gmean     1.249158                       (Unspecified)
system.caches.RequestType.ST.latency_hist_seqr::stdev    53.488381                       (Unspecified)
system.caches.RequestType.ST.latency_hist_seqr |      281392     96.84%     96.84% |        3107      1.07%     97.91% |        4917      1.69%     99.60% |         740      0.25%     99.86% |         332      0.11%     99.97% |          74      0.03%    100.00% |           7      0.00%    100.00% |           0      0.00%    100.00% |           0      0.00%    100.00% |           0      0.00%    100.00% (Unspecified)
system.caches.RequestType.ST.latency_hist_seqr::total       290569                       (Unspecified)
system.caches.RequestType.ST.hit_latency_hist_seqr::bucket_size            1                       (Unspecified)
system.caches.RequestType.ST.hit_latency_hist_seqr::max_bucket            9                       (Unspecified)
system.caches.RequestType.ST.hit_latency_hist_seqr::samples       276651                       (Unspecified)
system.caches.RequestType.ST.hit_latency_hist_seqr::mean            1                       (Unspecified)
system.caches.RequestType.ST.hit_latency_hist_seqr::gmean            1                       (Unspecified)
system.caches.RequestType.ST.hit_latency_hist_seqr |           0      0.00%      0.00% |      276651    100.00%    100.00% |           0      0.00%    100.00% |           0      0.00%    100.00% |           0      0.00%    100.00% |           0      0.00%    100.00% |           0      0.00%    100.00% |           0      0.00%    100.00% |           0      0.00%    100.00% |           0      0.00%    100.00% (Unspecified)
system.caches.RequestType.ST.hit_latency_hist_seqr::total       276651                       (Unspecified)
system.caches.RequestType.ST.miss_latency_hist_seqr::bucket_size          128                       (Unspecified)
system.caches.RequestType.ST.miss_latency_hist_seqr::max_bucket         1279                       (Unspecified)
system.caches.RequestType.ST.miss_latency_hist_seqr::samples        13918                       (Unspecified)
system.caches.RequestType.ST.miss_latency_hist_seqr::mean   196.814126                       (Unspecified)
system.caches.RequestType.ST.miss_latency_hist_seqr::gmean   104.016104                       (Unspecified)
system.caches.RequestType.ST.miss_latency_hist_seqr::stdev   152.396636                       (Unspecified)
system.caches.RequestType.ST.miss_latency_hist_seqr |        4741     34.06%     34.06% |        3107     22.32%     56.39% |        4917     35.33%     91.72% |         740      5.32%     97.03% |         332      2.39%     99.42% |          74      0.53%     99.95% |           7      0.05%    100.00% |           0      0.00%    100.00% |           0      0.00%    100.00% |           0      0.00%    100.00% (Unspecified)
system.caches.RequestType.ST.miss_latency_hist_seqr::total        13918                       (Unspecified)
system.caches.RequestType.IFETCH.latency_hist_seqr::bucket_size          128                       (Unspecified)
system.caches.RequestType.IFETCH.latency_hist_seqr::max_bucket         1279                       (Unspecified)
system.caches.RequestType.IFETCH.latency_hist_seqr::samples      4044472                       (Unspecified)
system.caches.RequestType.IFETCH.latency_hist_seqr::mean     1.869502                       (Unspecified)
system.caches.RequestType.IFETCH.latency_hist_seqr::gmean     1.024964                       (Unspecified)
system.caches.RequestType.IFETCH.latency_hist_seqr::stdev    15.961850                       (Unspecified)
system.caches.RequestType.IFETCH.latency_hist_seqr |     4032330     99.70%     99.70% |        5629      0.14%     99.84% |        5928      0.15%     99.99% |         312      0.01%     99.99% |         185      0.00%    100.00% |          75      0.00%    100.00% |          12      0.00%    100.00% |           1      0.00%    100.00% |           0      0.00%    100.00% |           0      0.00%    100.00% (Unspecified)
system.caches.RequestType.IFETCH.latency_hist_seqr::total      4044472                       (Unspecified)
system.caches.RequestType.IFETCH.hit_latency_hist_seqr::bucket_size            1                       (Unspecified)
system.caches.RequestType.IFETCH.hit_latency_hist_seqr::max_bucket            9                       (Unspecified)
system.caches.RequestType.IFETCH.hit_latency_hist_seqr::samples      4019637                       (Unspecified)
system.caches.RequestType.IFETCH.hit_latency_hist_seqr::mean            1                       (Unspecified)
system.caches.RequestType.IFETCH.hit_latency_hist_seqr::gmean            1                       (Unspecified)
system.caches.RequestType.IFETCH.hit_latency_hist_seqr |           0      0.00%      0.00% |     4019637    100.00%    100.00% |           0      0.00%    100.00% |           0      0.00%    100.00% |           0      0.00%    100.00% |           0      0.00%    100.00% |           0      0.00%    100.00% |           0      0.00%    100.00% |           0      0.00%    100.00% |           0      0.00%    100.00% (Unspecified)
system.caches.RequestType.IFETCH.hit_latency_hist_seqr::total      4019637                       (Unspecified)
system.caches.RequestType.IFETCH.miss_latency_hist_seqr::bucket_size          128                       (Unspecified)
system.caches.RequestType.IFETCH.miss_latency_hist_seqr::max_bucket         1279                       (Unspecified)
system.caches.RequestType.IFETCH.miss_latency_hist_seqr::samples        24835                       (Unspecified)
system.caches.RequestType.IFETCH.miss_latency_hist_seqr::mean   142.601611                       (Unspecified)
system.caches.RequestType.IFETCH.miss_latency_hist_seqr::gmean    55.452674                       (Unspecified)
system.caches.RequestType.IFETCH.miss_latency_hist_seqr::stdev   146.850055                       (Unspecified)
system.caches.RequestType.IFETCH.miss_latency_hist_seqr |       12693     51.11%     51.11% |        5629     22.67%     73.77% |        5928     23.87%     97.64% |         312      1.26%     98.90% |         185      0.74%     99.65% |          75      0.30%     99.95% |          12      0.05%    100.00% |           1      0.00%    100.00% |           0      0.00%    100.00% |           0      0.00%    100.00% (Unspecified)
system.caches.RequestType.IFETCH.miss_latency_hist_seqr::total        24835                       (Unspecified)
system.caches.RequestType.RMW_Read.latency_hist_seqr::bucket_size           64                       (Unspecified)
system.caches.RequestType.RMW_Read.latency_hist_seqr::max_bucket          639                       (Unspecified)
system.caches.RequestType.RMW_Read.latency_hist_seqr::samples        45326                       (Unspecified)
system.caches.RequestType.RMW_Read.latency_hist_seqr::mean    10.898248                       (Unspecified)
system.caches.RequestType.RMW_Read.latency_hist_seqr::gmean     1.316917                       (Unspecified)
system.caches.RequestType.RMW_Read.latency_hist_seqr::stdev    47.450831                       (Unspecified)
system.caches.RequestType.RMW_Read.latency_hist_seqr |       43410     95.77%     95.77% |           6      0.01%     95.79% |         508      1.12%     96.91% |         802      1.77%     98.68% |         446      0.98%     99.66% |         147      0.32%     99.98% |           1      0.00%     99.99% |           2      0.00%     99.99% |           2      0.00%    100.00% |           2      0.00%    100.00% (Unspecified)
system.caches.RequestType.RMW_Read.latency_hist_seqr::total        45326                       (Unspecified)
system.caches.RequestType.RMW_Read.hit_latency_hist_seqr::bucket_size            1                       (Unspecified)
system.caches.RequestType.RMW_Read.hit_latency_hist_seqr::max_bucket            9                       (Unspecified)
system.caches.RequestType.RMW_Read.hit_latency_hist_seqr::samples        42584                       (Unspecified)
system.caches.RequestType.RMW_Read.hit_latency_hist_seqr::mean            1                       (Unspecified)
system.caches.RequestType.RMW_Read.hit_latency_hist_seqr::gmean            1                       (Unspecified)
system.caches.RequestType.RMW_Read.hit_latency_hist_seqr |           0      0.00%      0.00% |       42584    100.00%    100.00% |           0      0.00%    100.00% |           0      0.00%    100.00% |           0      0.00%    100.00% |           0      0.00%    100.00% |           0      0.00%    100.00% |           0      0.00%    100.00% |           0      0.00%    100.00% |           0      0.00%    100.00% (Unspecified)
system.caches.RequestType.RMW_Read.hit_latency_hist_seqr::total        42584                       (Unspecified)
system.caches.RequestType.RMW_Read.miss_latency_hist_seqr::bucket_size           64                       (Unspecified)
system.caches.RequestType.RMW_Read.miss_latency_hist_seqr::max_bucket          639                       (Unspecified)
system.caches.RequestType.RMW_Read.miss_latency_hist_seqr::samples         2742                       (Unspecified)
system.caches.RequestType.RMW_Read.miss_latency_hist_seqr::mean   164.620715                       (Unspecified)
system.caches.RequestType.RMW_Read.miss_latency_hist_seqr::gmean    94.696474                       (Unspecified)
system.caches.RequestType.RMW_Read.miss_latency_hist_seqr::stdev   109.866503                       (Unspecified)
system.caches.RequestType.RMW_Read.miss_latency_hist_seqr |         826     30.12%     30.12% |           6      0.22%     30.34% |         508     18.53%     48.87% |         802     29.25%     78.12% |         446     16.27%     94.38% |         147      5.36%     99.74% |           1      0.04%     99.78% |           2      0.07%     99.85% |           2      0.07%     99.93% |           2      0.07%    100.00% (Unspecified)
system.caches.RequestType.RMW_Read.miss_latency_hist_seqr::total         2742                       (Unspecified)
system.caches.RequestType.Locked_RMW_Read.latency_hist_seqr::bucket_size          128                       (Unspecified)
system.caches.RequestType.Locked_RMW_Read.latency_hist_seqr::max_bucket         1279                       (Unspecified)
system.caches.RequestType.Locked_RMW_Read.latency_hist_seqr::samples          370                       (Unspecified)
system.caches.RequestType.Locked_RMW_Read.latency_hist_seqr::mean    43.559459                       (Unspecified)
system.caches.RequestType.Locked_RMW_Read.latency_hist_seqr::gmean     3.659083                       (Unspecified)
system.caches.RequestType.Locked_RMW_Read.latency_hist_seqr::stdev   112.392354                       (Unspecified)
system.caches.RequestType.Locked_RMW_Read.latency_hist_seqr |         326     88.11%     88.11% |          20      5.41%     93.51% |          13      3.51%     97.03% |           6      1.62%     98.65% |           4      1.08%     99.73% |           1      0.27%    100.00% |           0      0.00%    100.00% |           0      0.00%    100.00% |           0      0.00%    100.00% |           0      0.00%    100.00% (Unspecified)
system.caches.RequestType.Locked_RMW_Read.latency_hist_seqr::total          370                       (Unspecified)
system.caches.RequestType.Locked_RMW_Read.hit_latency_hist_seqr::bucket_size            1                       (Unspecified)
system.caches.RequestType.Locked_RMW_Read.hit_latency_hist_seqr::max_bucket            9                       (Unspecified)
system.caches.RequestType.Locked_RMW_Read.hit_latency_hist_seqr::samples          253                       (Unspecified)
system.caches.RequestType.Locked_RMW_Read.hit_latency_hist_seqr::mean            1                       (Unspecified)
system.caches.RequestType.Locked_RMW_Read.hit_latency_hist_seqr::gmean            1                       (Unspecified)
system.caches.RequestType.Locked_RMW_Read.hit_latency_hist_seqr |           0      0.00%      0.00% |         253    100.00%    100.00% |           0      0.00%    100.00% |           0      0.00%    100.00% |           0      0.00%    100.00% |           0      0.00%    100.00% |           0      0.00%    100.00% |           0      0.00%    100.00% |           0      0.00%    100.00% |           0      0.00%    100.00% (Unspecified)
system.caches.RequestType.Locked_RMW_Read.hit_latency_hist_seqr::total          253                       (Unspecified)
system.caches.RequestType.Locked_RMW_Read.miss_latency_hist_seqr::bucket_size          128                       (Unspecified)
system.caches.RequestType.Locked_RMW_Read.miss_latency_hist_seqr::max_bucket         1279                       (Unspecified)
system.caches.RequestType.Locked_RMW_Read.miss_latency_hist_seqr::samples          117                       (Unspecified)
system.caches.RequestType.Locked_RMW_Read.miss_latency_hist_seqr::mean   135.589744                       (Unspecified)
system.caches.RequestType.Locked_RMW_Read.miss_latency_hist_seqr::gmean    60.478999                       (Unspecified)
system.caches.RequestType.Locked_RMW_Read.miss_latency_hist_seqr::stdev   166.402667                       (Unspecified)
system.caches.RequestType.Locked_RMW_Read.miss_latency_hist_seqr |          73     62.39%     62.39% |          20     17.09%     79.49% |          13     11.11%     90.60% |           6      5.13%     95.73% |           4      3.42%     99.15% |           1      0.85%    100.00% |           0      0.00%    100.00% |           0      0.00%    100.00% |           0      0.00%    100.00% |           0      0.00%    100.00% (Unspecified)
system.caches.RequestType.Locked_RMW_Read.miss_latency_hist_seqr::total          117                       (Unspecified)
system.caches.RequestType.Locked_RMW_Write.latency_hist_seqr::bucket_size            1                       (Unspecified)
system.caches.RequestType.Locked_RMW_Write.latency_hist_seqr::max_bucket            9                       (Unspecified)
system.caches.RequestType.Locked_RMW_Write.latency_hist_seqr::samples          370                       (Unspecified)
system.caches.RequestType.Locked_RMW_Write.latency_hist_seqr::mean            1                       (Unspecified)
system.caches.RequestType.Locked_RMW_Write.latency_hist_seqr::gmean            1                       (Unspecified)
system.caches.RequestType.Locked_RMW_Write.latency_hist_seqr |           0      0.00%      0.00% |         370    100.00%    100.00% |           0      0.00%    100.00% |           0      0.00%    100.00% |           0      0.00%    100.00% |           0      0.00%    100.00% |           0      0.00%    100.00% |           0      0.00%    100.00% |           0      0.00%    100.00% |           0      0.00%    100.00% (Unspecified)
system.caches.RequestType.Locked_RMW_Write.latency_hist_seqr::total          370                       (Unspecified)
system.caches.RequestType.Locked_RMW_Write.hit_latency_hist_seqr::bucket_size            1                       (Unspecified)
system.caches.RequestType.Locked_RMW_Write.hit_latency_hist_seqr::max_bucket            9                       (Unspecified)
system.caches.RequestType.Locked_RMW_Write.hit_latency_hist_seqr::samples          370                       (Unspecified)
system.caches.RequestType.Locked_RMW_Write.hit_latency_hist_seqr::mean            1                       (Unspecified)
system.caches.RequestType.Locked_RMW_Write.hit_latency_hist_seqr::gmean            1                       (Unspecified)
system.caches.RequestType.Locked_RMW_Write.hit_latency_hist_seqr |           0      0.00%      0.00% |         370    100.00%    100.00% |           0      0.00%    100.00% |           0      0.00%    100.00% |           0      0.00%    100.00% |           0      0.00%    100.00% |           0      0.00%    100.00% |           0      0.00%    100.00% |           0      0.00%    100.00% |           0      0.00%    100.00% (Unspecified)
system.caches.RequestType.Locked_RMW_Write.hit_latency_hist_seqr::total          370                       (Unspecified)
system.caches.controllers0.DCache.m_demand_hits            0                       # Number of cache demand hits (Unspecified)
system.caches.controllers0.DCache.m_demand_misses            0                       # Number of cache demand misses (Unspecified)
system.caches.controllers0.DCache.m_demand_accesses            0                       # Number of cache demand accesses (Unspecified)
system.caches.controllers0.ICache.m_demand_hits            0                       # Number of cache demand hits (Unspecified)
system.caches.controllers0.ICache.m_demand_misses            0                       # Number of cache demand misses (Unspecified)
system.caches.controllers0.ICache.m_demand_accesses            0                       # Number of cache demand accesses (Unspecified)
system.caches.controllers0.forwardFromL1.m_buf_msgs     0.001828                       # Average number of messages in buffer (Unspecified)
system.caches.controllers0.forwardFromL1.m_stall_time  4996.049003                       # Average number of cycles messages are stalled in this MB (Unspecified)
system.caches.controllers0.mandatoryQueue.m_buf_msgs     0.208857                       # Average number of messages in buffer (Unspecified)
system.caches.controllers0.mandatoryQueue.m_stall_time   999.999957                       # Average number of cycles messages are stalled in this MB (Unspecified)
system.caches.controllers0.power_state.pwrStateResidencyTicks::UNDEFINED  23096703000                       # Cumulative time (in ticks) in various power states (Tick)
system.caches.controllers0.requestToL1.m_buf_msgs     0.004582                       # Average number of messages in buffer (Unspecified)
system.caches.controllers0.requestToL1.m_stall_time   999.999913                       # Average number of cycles messages are stalled in this MB (Unspecified)
system.caches.controllers0.responseFromL1.m_buf_msgs     0.003930                       # Average number of messages in buffer (Unspecified)
system.caches.controllers0.responseFromL1.m_stall_time  4999.971641                       # Average number of cycles messages are stalled in this MB (Unspecified)
system.caches.controllers0.responseToL1.m_buf_msgs     0.000091                       # Average number of messages in buffer (Unspecified)
system.caches.controllers0.responseToL1.m_stall_time   999.051640                       # Average number of cycles messages are stalled in this MB (Unspecified)
system.caches.controllers0.xyzStatsObject.power_state.pwrStateResidencyTicks::UNDEFINED  23096703000                       # Cumulative time (in ticks) in various power states (Tick)
system.caches.controllers1.DCache.m_demand_hits            0                       # Number of cache demand hits (Unspecified)
system.caches.controllers1.DCache.m_demand_misses            0                       # Number of cache demand misses (Unspecified)
system.caches.controllers1.DCache.m_demand_accesses            0                       # Number of cache demand accesses (Unspecified)
system.caches.controllers1.ICache.m_demand_hits            0                       # Number of cache demand hits (Unspecified)
system.caches.controllers1.ICache.m_demand_misses            0                       # Number of cache demand misses (Unspecified)
system.caches.controllers1.ICache.m_demand_accesses            0                       # Number of cache demand accesses (Unspecified)
system.caches.controllers1.forwardFromL1.m_buf_msgs     0.000077                       # Average number of messages in buffer (Unspecified)
system.caches.controllers1.forwardFromL1.m_stall_time   472.216533                       # Average number of cycles messages are stalled in this MB (Unspecified)
system.caches.controllers1.mandatoryQueue.m_buf_msgs     0.005553                       # Average number of messages in buffer (Unspecified)
system.caches.controllers1.mandatoryQueue.m_stall_time    95.038370                       # Average number of cycles messages are stalled in this MB (Unspecified)
system.caches.controllers1.power_state.pwrStateResidencyTicks::UNDEFINED  23096703000                       # Cumulative time (in ticks) in various power states (Tick)
system.caches.controllers1.requestToL1.m_buf_msgs     0.000168                       # Average number of messages in buffer (Unspecified)
system.caches.controllers1.requestToL1.m_stall_time    95.038327                       # Average number of cycles messages are stalled in this MB (Unspecified)
system.caches.controllers1.responseFromL1.m_buf_msgs     0.000133                       # Average number of messages in buffer (Unspecified)
system.caches.controllers1.responseFromL1.m_stall_time   475.185788                       # Average number of cycles messages are stalled in this MB (Unspecified)
system.caches.controllers1.responseToL1.m_buf_msgs     0.000002                       # Average number of messages in buffer (Unspecified)
system.caches.controllers1.responseToL1.m_stall_time    89.614695                       # Average number of cycles messages are stalled in this MB (Unspecified)
system.caches.controllers1.xyzStatsObject.power_state.pwrStateResidencyTicks::UNDEFINED  23096703000                       # Cumulative time (in ticks) in various power states (Tick)
system.caches.controllers2.DCache.m_demand_hits            0                       # Number of cache demand hits (Unspecified)
system.caches.controllers2.DCache.m_demand_misses            0                       # Number of cache demand misses (Unspecified)
system.caches.controllers2.DCache.m_demand_accesses            0                       # Number of cache demand accesses (Unspecified)
system.caches.controllers2.ICache.m_demand_hits            0                       # Number of cache demand hits (Unspecified)
system.caches.controllers2.ICache.m_demand_misses            0                       # Number of cache demand misses (Unspecified)
system.caches.controllers2.ICache.m_demand_accesses            0                       # Number of cache demand accesses (Unspecified)
system.caches.controllers2.forwardFromL1.m_buf_msgs     0.000069                       # Average number of messages in buffer (Unspecified)
system.caches.controllers2.forwardFromL1.m_stall_time   449.136312                       # Average number of cycles messages are stalled in this MB (Unspecified)
system.caches.controllers2.mandatoryQueue.m_buf_msgs     0.005295                       # Average number of messages in buffer (Unspecified)
system.caches.controllers2.mandatoryQueue.m_stall_time    90.210235                       # Average number of cycles messages are stalled in this MB (Unspecified)
system.caches.controllers2.power_state.pwrStateResidencyTicks::UNDEFINED  23096703000                       # Cumulative time (in ticks) in various power states (Tick)
system.caches.controllers2.requestToL1.m_buf_msgs     0.000149                       # Average number of messages in buffer (Unspecified)
system.caches.controllers2.requestToL1.m_stall_time    90.210192                       # Average number of cycles messages are stalled in this MB (Unspecified)
system.caches.controllers2.responseFromL1.m_buf_msgs     0.000117                       # Average number of messages in buffer (Unspecified)
system.caches.controllers2.responseFromL1.m_stall_time   451.025196                       # Average number of cycles messages are stalled in this MB (Unspecified)
system.caches.controllers2.responseToL1.m_buf_msgs     0.000002                       # Average number of messages in buffer (Unspecified)
system.caches.controllers2.responseToL1.m_stall_time    87.247647                       # Average number of cycles messages are stalled in this MB (Unspecified)
system.caches.controllers2.xyzStatsObject.power_state.pwrStateResidencyTicks::UNDEFINED  23096703000                       # Cumulative time (in ticks) in various power states (Tick)
system.caches.controllers3.DCache.m_demand_hits            0                       # Number of cache demand hits (Unspecified)
system.caches.controllers3.DCache.m_demand_misses            0                       # Number of cache demand misses (Unspecified)
system.caches.controllers3.DCache.m_demand_accesses            0                       # Number of cache demand accesses (Unspecified)
system.caches.controllers3.ICache.m_demand_hits            0                       # Number of cache demand hits (Unspecified)
system.caches.controllers3.ICache.m_demand_misses            0                       # Number of cache demand misses (Unspecified)
system.caches.controllers3.ICache.m_demand_accesses            0                       # Number of cache demand accesses (Unspecified)
system.caches.controllers3.forwardFromL1.m_buf_msgs     0.000066                       # Average number of messages in buffer (Unspecified)
system.caches.controllers3.forwardFromL1.m_stall_time   425.980063                       # Average number of cycles messages are stalled in this MB (Unspecified)
system.caches.controllers3.mandatoryQueue.m_buf_msgs     0.005153                       # Average number of messages in buffer (Unspecified)
system.caches.controllers3.mandatoryQueue.m_stall_time    85.772026                       # Average number of cycles messages are stalled in this MB (Unspecified)
system.caches.controllers3.power_state.pwrStateResidencyTicks::UNDEFINED  23096703000                       # Cumulative time (in ticks) in various power states (Tick)
system.caches.controllers3.requestToL1.m_buf_msgs     0.000130                       # Average number of messages in buffer (Unspecified)
system.caches.controllers3.requestToL1.m_stall_time    85.771982                       # Average number of cycles messages are stalled in this MB (Unspecified)
system.caches.controllers3.responseFromL1.m_buf_msgs     0.000104                       # Average number of messages in buffer (Unspecified)
system.caches.controllers3.responseFromL1.m_stall_time   428.801245                       # Average number of cycles messages are stalled in this MB (Unspecified)
system.caches.controllers3.responseToL1.m_buf_msgs     0.000006                       # Average number of messages in buffer (Unspecified)
system.caches.controllers3.responseToL1.m_stall_time    84.502537                       # Average number of cycles messages are stalled in this MB (Unspecified)
system.caches.controllers3.xyzStatsObject.power_state.pwrStateResidencyTicks::UNDEFINED  23096703000                       # Cumulative time (in ticks) in various power states (Tick)
system.caches.controllers4.cacheMemory.m_demand_hits            0                       # Number of cache demand hits (Unspecified)
system.caches.controllers4.cacheMemory.m_demand_misses            0                       # Number of cache demand misses (Unspecified)
system.caches.controllers4.cacheMemory.m_demand_accesses            0                       # Number of cache demand accesses (Unspecified)
system.caches.controllers4.forwardFromDir.m_buf_msgs     0.002207                       # Average number of messages in buffer (Unspecified)
system.caches.controllers4.forwardFromDir.m_stall_time  4999.153949                       # Average number of cycles messages are stalled in this MB (Unspecified)
system.caches.controllers4.forwardFromDir.m_stall_count           34                       # Number of times messages were stalled (Unspecified)
system.caches.controllers4.forwardToL0.m_buf_msgs     0.001828                       # Average number of messages in buffer (Unspecified)
system.caches.controllers4.forwardToL0.m_stall_time   999.209974                       # Average number of cycles messages are stalled in this MB (Unspecified)
system.caches.controllers4.power_state.pwrStateResidencyTicks::UNDEFINED  23096703000                       # Cumulative time (in ticks) in various power states (Tick)
system.caches.controllers4.requestFromL0.m_buf_msgs     0.038843                       # Average number of messages in buffer (Unspecified)
system.caches.controllers4.requestFromL0.m_stall_time 17974.095004                       # Average number of cycles messages are stalled in this MB (Unspecified)
system.caches.controllers4.requestFromL0.m_stall_count        52688                       # Number of times messages were stalled (Unspecified)
system.caches.controllers4.requestToDir.m_buf_msgs     0.004449                       # Average number of messages in buffer (Unspecified)
system.caches.controllers4.requestToDir.m_stall_time   999.999697                       # Average number of cycles messages are stalled in this MB (Unspecified)
system.caches.controllers4.responseFromDirOrSibling.m_buf_msgs     0.002258                       # Average number of messages in buffer (Unspecified)
system.caches.controllers4.responseFromDirOrSibling.m_stall_time 12908.441997                       # Average number of cycles messages are stalled in this MB (Unspecified)
system.caches.controllers4.responseFromL0.m_buf_msgs     0.000091                       # Average number of messages in buffer (Unspecified)
system.caches.controllers4.responseFromL0.m_stall_time  4995.257332                       # Average number of cycles messages are stalled in this MB (Unspecified)
system.caches.controllers4.responseToDirOrSibling.m_buf_msgs     0.000002                       # Average number of messages in buffer (Unspecified)
system.caches.controllers4.responseToDirOrSibling.m_stall_time    95.026420                       # Average number of cycles messages are stalled in this MB (Unspecified)
system.caches.controllers4.responseToL0.m_buf_msgs     0.003930                       # Average number of messages in buffer (Unspecified)
system.caches.controllers4.responseToL0.m_stall_time   999.994501                       # Average number of cycles messages are stalled in this MB (Unspecified)
system.caches.controllers4.xyzStatsObject.power_state.pwrStateResidencyTicks::UNDEFINED  23096703000                       # Cumulative time (in ticks) in various power states (Tick)
system.caches.controllers5.cacheMemory.m_demand_hits            0                       # Number of cache demand hits (Unspecified)
system.caches.controllers5.cacheMemory.m_demand_misses            0                       # Number of cache demand misses (Unspecified)
system.caches.controllers5.cacheMemory.m_demand_accesses            0                       # Number of cache demand accesses (Unspecified)
system.caches.controllers5.forwardFromDir.m_buf_msgs     0.000118                       # Average number of messages in buffer (Unspecified)
system.caches.controllers5.forwardFromDir.m_stall_time   481.516821                       # Average number of cycles messages are stalled in this MB (Unspecified)
system.caches.controllers5.forwardFromDir.m_stall_count           25                       # Number of times messages were stalled (Unspecified)
system.caches.controllers5.forwardToL0.m_buf_msgs     0.000077                       # Average number of messages in buffer (Unspecified)
system.caches.controllers5.forwardToL0.m_stall_time    94.443480                       # Average number of cycles messages are stalled in this MB (Unspecified)
system.caches.controllers5.power_state.pwrStateResidencyTicks::UNDEFINED  23096703000                       # Cumulative time (in ticks) in various power states (Tick)
system.caches.controllers5.requestFromL0.m_buf_msgs     0.007521                       # Average number of messages in buffer (Unspecified)
system.caches.controllers5.requestFromL0.m_stall_time 14438.602524                       # Average number of cycles messages are stalled in this MB (Unspecified)
system.caches.controllers5.requestFromL0.m_stall_count         1843                       # Number of times messages were stalled (Unspecified)
system.caches.controllers5.requestToDir.m_buf_msgs     0.000197                       # Average number of messages in buffer (Unspecified)
system.caches.controllers5.requestToDir.m_stall_time    95.038110                       # Average number of cycles messages are stalled in this MB (Unspecified)
system.caches.controllers5.responseFromDirOrSibling.m_buf_msgs     0.000119                       # Average number of messages in buffer (Unspecified)
system.caches.controllers5.responseFromDirOrSibling.m_stall_time  1232.875966                       # Average number of cycles messages are stalled in this MB (Unspecified)
system.caches.controllers5.responseFromL0.m_buf_msgs     0.000002                       # Average number of messages in buffer (Unspecified)
system.caches.controllers5.responseFromL0.m_stall_time   448.072610                       # Average number of cycles messages are stalled in this MB (Unspecified)
system.caches.controllers5.responseToDirOrSibling.m_buf_msgs     0.000028                       # Average number of messages in buffer (Unspecified)
system.caches.controllers5.responseToDirOrSibling.m_stall_time    91.949834                       # Average number of cycles messages are stalled in this MB (Unspecified)
system.caches.controllers5.responseToL0.m_buf_msgs     0.000133                       # Average number of messages in buffer (Unspecified)
system.caches.controllers5.responseToL0.m_stall_time    95.037331                       # Average number of cycles messages are stalled in this MB (Unspecified)
system.caches.controllers5.xyzStatsObject.power_state.pwrStateResidencyTicks::UNDEFINED  23096703000                       # Cumulative time (in ticks) in various power states (Tick)
system.caches.controllers6.cacheMemory.m_demand_hits            0                       # Number of cache demand hits (Unspecified)
system.caches.controllers6.cacheMemory.m_demand_misses            0                       # Number of cache demand misses (Unspecified)
system.caches.controllers6.cacheMemory.m_demand_accesses            0                       # Number of cache demand accesses (Unspecified)
system.caches.controllers6.forwardFromDir.m_buf_msgs     0.000106                       # Average number of messages in buffer (Unspecified)
system.caches.controllers6.forwardFromDir.m_stall_time   876.123662                       # Average number of cycles messages are stalled in this MB (Unspecified)
system.caches.controllers6.forwardFromDir.m_stall_count           18                       # Number of times messages were stalled (Unspecified)
system.caches.controllers6.forwardToL0.m_buf_msgs     0.000069                       # Average number of messages in buffer (Unspecified)
system.caches.controllers6.forwardToL0.m_stall_time    89.797275                       # Average number of cycles messages are stalled in this MB (Unspecified)
system.caches.controllers6.power_state.pwrStateResidencyTicks::UNDEFINED  23096703000                       # Cumulative time (in ticks) in various power states (Tick)
system.caches.controllers6.requestFromL0.m_buf_msgs     0.010228                       # Average number of messages in buffer (Unspecified)
system.caches.controllers6.requestFromL0.m_stall_time 12660.917369                       # Average number of cycles messages are stalled in this MB (Unspecified)
system.caches.controllers6.requestFromL0.m_stall_count         1745                       # Number of times messages were stalled (Unspecified)
system.caches.controllers6.requestToDir.m_buf_msgs     0.000184                       # Average number of messages in buffer (Unspecified)
system.caches.controllers6.requestToDir.m_stall_time    90.209975                       # Average number of cycles messages are stalled in this MB (Unspecified)
system.caches.controllers6.responseFromDirOrSibling.m_buf_msgs     0.000110                       # Average number of messages in buffer (Unspecified)
system.caches.controllers6.responseFromDirOrSibling.m_stall_time  1076.217849                       # Average number of cycles messages are stalled in this MB (Unspecified)
system.caches.controllers6.responseFromL0.m_buf_msgs     0.000002                       # Average number of messages in buffer (Unspecified)
system.caches.controllers6.responseFromL0.m_stall_time   436.237371                       # Average number of cycles messages are stalled in this MB (Unspecified)
system.caches.controllers6.responseToDirOrSibling.m_buf_msgs     0.000025                       # Average number of messages in buffer (Unspecified)
system.caches.controllers6.responseToDirOrSibling.m_stall_time    83.440004                       # Average number of cycles messages are stalled in this MB (Unspecified)
system.caches.controllers6.responseToL0.m_buf_msgs     0.000117                       # Average number of messages in buffer (Unspecified)
system.caches.controllers6.responseToL0.m_stall_time    90.205212                       # Average number of cycles messages are stalled in this MB (Unspecified)
system.caches.controllers6.xyzStatsObject.power_state.pwrStateResidencyTicks::UNDEFINED  23096703000                       # Cumulative time (in ticks) in various power states (Tick)
system.caches.controllers7.cacheMemory.m_demand_hits            0                       # Number of cache demand hits (Unspecified)
system.caches.controllers7.cacheMemory.m_demand_misses            0                       # Number of cache demand misses (Unspecified)
system.caches.controllers7.cacheMemory.m_demand_accesses            0                       # Number of cache demand accesses (Unspecified)
system.caches.controllers7.forwardFromDir.m_buf_msgs     0.000137                       # Average number of messages in buffer (Unspecified)
system.caches.controllers7.forwardFromDir.m_stall_time   478.492883                       # Average number of cycles messages are stalled in this MB (Unspecified)
system.caches.controllers7.forwardFromDir.m_stall_count          106                       # Number of times messages were stalled (Unspecified)
system.caches.controllers7.forwardToL0.m_buf_msgs     0.000066                       # Average number of messages in buffer (Unspecified)
system.caches.controllers7.forwardToL0.m_stall_time    85.196186                       # Average number of cycles messages are stalled in this MB (Unspecified)
system.caches.controllers7.power_state.pwrStateResidencyTicks::UNDEFINED  23096703000                       # Cumulative time (in ticks) in various power states (Tick)
system.caches.controllers7.requestFromL0.m_buf_msgs     0.007619                       # Average number of messages in buffer (Unspecified)
system.caches.controllers7.requestFromL0.m_stall_time 13074.586715                       # Average number of cycles messages are stalled in this MB (Unspecified)
system.caches.controllers7.requestFromL0.m_stall_count         1505                       # Number of times messages were stalled (Unspecified)
system.caches.controllers7.requestToDir.m_buf_msgs     0.000166                       # Average number of messages in buffer (Unspecified)
system.caches.controllers7.requestToDir.m_stall_time    85.771766                       # Average number of cycles messages are stalled in this MB (Unspecified)
system.caches.controllers7.responseFromDirOrSibling.m_buf_msgs     0.000102                       # Average number of messages in buffer (Unspecified)
system.caches.controllers7.responseFromDirOrSibling.m_stall_time  1052.922922                       # Average number of cycles messages are stalled in this MB (Unspecified)
system.caches.controllers7.responseFromL0.m_buf_msgs     0.000006                       # Average number of messages in buffer (Unspecified)
system.caches.controllers7.responseFromL0.m_stall_time   422.511819                       # Average number of cycles messages are stalled in this MB (Unspecified)
system.caches.controllers7.responseToDirOrSibling.m_buf_msgs     0.000027                       # Average number of messages in buffer (Unspecified)
system.caches.controllers7.responseToDirOrSibling.m_stall_time    84.502321                       # Average number of cycles messages are stalled in this MB (Unspecified)
system.caches.controllers7.responseToL0.m_buf_msgs     0.000104                       # Average number of messages in buffer (Unspecified)
system.caches.controllers7.responseToL0.m_stall_time    85.760422                       # Average number of cycles messages are stalled in this MB (Unspecified)
system.caches.controllers7.xyzStatsObject.power_state.pwrStateResidencyTicks::UNDEFINED  23096703000                       # Cumulative time (in ticks) in various power states (Tick)
system.caches.controllers8.cacheMemory.m_demand_hits            0                       # Number of cache demand hits (Unspecified)
system.caches.controllers8.cacheMemory.m_demand_misses            0                       # Number of cache demand misses (Unspecified)
system.caches.controllers8.cacheMemory.m_demand_accesses            0                       # Number of cache demand accesses (Unspecified)
system.caches.controllers8.forwardToCache.m_buf_msgs     0.002546                       # Average number of messages in buffer (Unspecified)
system.caches.controllers8.forwardToCache.m_stall_time   999.818502                       # Average number of cycles messages are stalled in this MB (Unspecified)
system.caches.controllers8.power_state.pwrStateResidencyTicks::UNDEFINED  23096703000                       # Cumulative time (in ticks) in various power states (Tick)
system.caches.controllers8.requestFromCache.m_not_avail_count        21672                       # Number of times this buffer did not have N slots available (Unspecified)
system.caches.controllers8.requestFromCache.m_buf_msgs     0.004996                       # Average number of messages in buffer (Unspecified)
system.caches.controllers8.requestFromCache.m_stall_time 104640.835840                       # Average number of cycles messages are stalled in this MB (Unspecified)
system.caches.controllers8.requestFromCache.m_occupancy     0.004996                       # Average occupancy of buffer capacity (Unspecified)
system.caches.controllers8.requestToMemory.m_buf_msgs     0.003426                       # Average number of messages in buffer (Unspecified)
system.caches.controllers8.requestToMemory.m_stall_time   999.999480                       # Average number of cycles messages are stalled in this MB (Unspecified)
system.caches.controllers8.responseFromMemory.m_buf_msgs     0.003426                       # Average number of messages in buffer (Unspecified)
system.caches.controllers8.responseFromMemory.m_stall_time   999.995108                       # Average number of cycles messages are stalled in this MB (Unspecified)
system.caches.controllers8.responseToCache.m_buf_msgs     0.022573                       # Average number of messages in buffer (Unspecified)
system.caches.controllers8.responseToCache.m_stall_time  8999.952461                       # Average number of cycles messages are stalled in this MB (Unspecified)
system.caches.controllers8.xyzCacheMemory.m_demand_hits            0                       # Number of cache demand hits (Unspecified)
system.caches.controllers8.xyzCacheMemory.m_demand_misses            0                       # Number of cache demand misses (Unspecified)
system.caches.controllers8.xyzCacheMemory.m_demand_accesses            0                       # Number of cache demand accesses (Unspecified)
system.caches.controllers8.xyzStatsObject.power_state.pwrStateResidencyTicks::UNDEFINED  23096703000                       # Cumulative time (in ticks) in various power states (Tick)
system.caches.network.msg_count.Control        616268                       (Unspecified)
system.caches.network.msg_byte.Control        4930144                       (Unspecified)
system.caches.network.msg_count.Data           325800                       (Unspecified)
system.caches.network.msg_byte.Data          23457600                       (Unspecified)
system.caches.network.msg_count.Response_Data        52458                       (Unspecified)
system.caches.network.msg_byte.Response_Data      3776976                       (Unspecified)
system.caches.network.int_link_buffers102.m_buf_msgs     0.000069                       # Average number of messages in buffer (Unspecified)
system.caches.network.int_link_buffers102.m_stall_time   269.542367                       # Average number of cycles messages are stalled in this MB (Unspecified)
system.caches.network.int_link_buffers103.m_buf_msgs     0.000117                       # Average number of messages in buffer (Unspecified)
system.caches.network.int_link_buffers103.m_stall_time   270.615378                       # Average number of cycles messages are stalled in this MB (Unspecified)
system.caches.network.int_link_buffers107.m_buf_msgs     0.000000                       # Average number of messages in buffer (Unspecified)
system.caches.network.int_link_buffers107.m_stall_time   129.312353                       # Average number of cycles messages are stalled in this MB (Unspecified)
system.caches.network.int_link_buffers11.m_buf_msgs     0.000168                       # Average number of messages in buffer (Unspecified)
system.caches.network.int_link_buffers11.m_stall_time   325.119650                       # Average number of cycles messages are stalled in this MB (Unspecified)
system.caches.network.int_link_buffers114.m_buf_msgs     0.000001                       # Average number of messages in buffer (Unspecified)
system.caches.network.int_link_buffers114.m_stall_time   163.966130                       # Average number of cycles messages are stalled in this MB (Unspecified)
system.caches.network.int_link_buffers12.m_buf_msgs     0.000002                       # Average number of messages in buffer (Unspecified)
system.caches.network.int_link_buffers12.m_stall_time   268.843826                       # Average number of cycles messages are stalled in this MB (Unspecified)
system.caches.network.int_link_buffers121.m_buf_msgs     0.000024                       # Average number of messages in buffer (Unspecified)
system.caches.network.int_link_buffers121.m_stall_time   250.319754                       # Average number of cycles messages are stalled in this MB (Unspecified)
system.caches.network.int_link_buffers126.m_buf_msgs     0.028656                       # Average number of messages in buffer (Unspecified)
system.caches.network.int_link_buffers126.m_stall_time 18671.960073                       # Average number of cycles messages are stalled in this MB (Unspecified)
system.caches.network.int_link_buffers137.m_buf_msgs     0.000066                       # Average number of messages in buffer (Unspecified)
system.caches.network.int_link_buffers137.m_stall_time   255.588298                       # Average number of cycles messages are stalled in this MB (Unspecified)
system.caches.network.int_link_buffers138.m_buf_msgs     0.000104                       # Average number of messages in buffer (Unspecified)
system.caches.network.int_link_buffers138.m_stall_time   257.281007                       # Average number of cycles messages are stalled in this MB (Unspecified)
system.caches.network.int_link_buffers142.m_buf_msgs     0.000027                       # Average number of messages in buffer (Unspecified)
system.caches.network.int_link_buffers142.m_stall_time   253.506702                       # Average number of cycles messages are stalled in this MB (Unspecified)
system.caches.network.int_link_buffers149.m_buf_msgs     0.000000                       # Average number of messages in buffer (Unspecified)
system.caches.network.int_link_buffers149.m_stall_time   147.939167                       # Average number of cycles messages are stalled in this MB (Unspecified)
system.caches.network.int_link_buffers156.m_buf_msgs     0.000000                       # Average number of messages in buffer (Unspecified)
system.caches.network.int_link_buffers156.m_stall_time   146.499611                       # Average number of cycles messages are stalled in this MB (Unspecified)
system.caches.network.int_link_buffers161.m_buf_msgs     0.025713                       # Average number of messages in buffer (Unspecified)
system.caches.network.int_link_buffers161.m_stall_time 12537.841835                       # Average number of cycles messages are stalled in this MB (Unspecified)
system.caches.network.int_link_buffers169.m_buf_msgs     0.002192                       # Average number of messages in buffer (Unspecified)
system.caches.network.int_link_buffers169.m_stall_time  2997.658800                       # Average number of cycles messages are stalled in this MB (Unspecified)
system.caches.network.int_link_buffers170.m_buf_msgs     0.002231                       # Average number of messages in buffer (Unspecified)
system.caches.network.int_link_buffers170.m_stall_time 10999.940944                       # Average number of cycles messages are stalled in this MB (Unspecified)
system.caches.network.int_link_buffers176.m_buf_msgs     0.000107                       # Average number of messages in buffer (Unspecified)
system.caches.network.int_link_buffers176.m_stall_time   289.799458                       # Average number of cycles messages are stalled in this MB (Unspecified)
[...]
system.caches.controllers2.xyzStatsObjectlatency::underflows            0      0.00%      0.00% # Mem access latency (Unspecified)
system.caches.controllers2.xyzStatsObjectlatency::0-49999         2694    100.00%    100.00% # Mem access latency (Unspecified)
system.caches.controllers2.xyzStatsObjectlatency::50000-99999            0      0.00%    100.00% # Mem access latency (Unspecified)
system.caches.controllers2.xyzStatsObjectlatency::100000            0      0.00%    100.00% # Mem access latency (Unspecified)
system.caches.controllers2.xyzStatsObjectlatency::overflows            0      0.00%    100.00% # Mem access latency (Unspecified)
system.caches.controllers2.xyzStatsObjectlatency::min_value           10                       # Mem access latency (Unspecified)
system.caches.controllers2.xyzStatsObjectlatency::max_value          974                       # Mem access latency (Unspecified)
system.caches.controllers2.xyzStatsObjectlatency::total         2694                       # Mem access latency (Unspecified)
system.caches.controllers3.xyzStatsObject.total_put            0                       # Total number of put (PutM + PutS) (Unspecified)
system.caches.controllers3.xyzStatsObject.total_put_as_wt            0                       # Total number of put as write through (Unspecified)
system.caches.controllers3.xyzStatsObject.total_putm            0                       # Total number of PutM (Unspecified)
system.caches.controllers3.xyzStatsObject.total_putm_as_wt            0                       # Total number of PutM as write through (Unspecified)
system.caches.controllers3.xyzStatsObject.total_puts            0                       # Total number of PutS (Unspecified)
system.caches.controllers3.xyzStatsObject.total_puts_as_wt            0                       # Total number of PutS as write through (Unspecified)
system.caches.controllers3.xyzStatsObject.total_repl            0                       # Total Replacement (Unspecified)
system.caches.controllers3.xyzStatsObject.total_repl_llc            0                       # Total Replacement of LLC line (Unspecified)
system.caches.controllers3.xyzStatsObject.total_repl_owned            0                       # Total Replacement of owned line (Unspecified)
system.caches.controllers3.xyzStatsObject.total_repl_shared            0                       # Total Replacement of shared line (Unspecified)
system.caches.controllers3.xyzStatsObject.wt_putRatio          nan                       # WT / Put (Unspecified)
system.caches.controllers3.xyzStatsObject.wt_putmRatio          nan                       # PutM WT / PutM (Unspecified)
system.caches.controllers3.xyzStatsObject.wt_putsRatio          nan                       # PutS WT / PutS (Unspecified)
system.caches.controllers3.xyzStatsObjectlatency::samples         2402                       # Mem access latency (Unspecified)
system.caches.controllers3.xyzStatsObjectlatency::mean   293.010408                       # Mem access latency (Unspecified)
system.caches.controllers3.xyzStatsObjectlatency::stdev   174.090134                       # Mem access latency (Unspecified)
system.caches.controllers3.xyzStatsObjectlatency::underflows            0      0.00%      0.00% # Mem access latency (Unspecified)
system.caches.controllers3.xyzStatsObjectlatency::0-49999         2402    100.00%    100.00% # Mem access latency (Unspecified)
system.caches.controllers3.xyzStatsObjectlatency::50000-99999            0      0.00%    100.00% # Mem access latency (Unspecified)
system.caches.controllers3.xyzStatsObjectlatency::100000            0      0.00%    100.00% # Mem access latency (Unspecified)
system.caches.controllers3.xyzStatsObjectlatency::overflows            0      0.00%    100.00% # Mem access latency (Unspecified)
system.caches.controllers3.xyzStatsObjectlatency::min_value           10                       # Mem access latency (Unspecified)
system.caches.controllers3.xyzStatsObjectlatency::max_value          856                       # Mem access latency (Unspecified)
system.caches.controllers3.xyzStatsObjectlatency::total         2402                       # Mem access latency (Unspecified)
system.caches.controllers4.xyzStatsObject.total_put            0                       # Total number of put (PutM + PutS) (Unspecified)
system.caches.controllers4.xyzStatsObject.total_put_as_wt            0                       # Total number of put as write through (Unspecified)
system.caches.controllers4.xyzStatsObject.total_putm            0                       # Total number of PutM (Unspecified)
system.caches.controllers4.xyzStatsObject.total_putm_as_wt            0                       # Total number of PutM as write through (Unspecified)
system.caches.controllers4.xyzStatsObject.total_puts            0                       # Total number of PutS (Unspecified)
system.caches.controllers4.xyzStatsObject.total_puts_as_wt            0                       # Total number of PutS as write through (Unspecified)
system.caches.controllers4.xyzStatsObject.total_repl            0                       # Total Replacement (Unspecified)
system.caches.controllers4.xyzStatsObject.total_repl_llc            0                       # Total Replacement of LLC line (Unspecified)
system.caches.controllers4.xyzStatsObject.total_repl_owned            0                       # Total Replacement of owned line (Unspecified)
system.caches.controllers4.xyzStatsObject.total_repl_shared            0                       # Total Replacement of shared line (Unspecified)
system.caches.controllers4.xyzStatsObject.wt_putRatio          nan                       # WT / Put (Unspecified)
system.caches.controllers4.xyzStatsObject.wt_putmRatio          nan                       # PutM WT / PutM (Unspecified)
system.caches.controllers4.xyzStatsObject.wt_putsRatio          nan                       # PutS WT / PutS (Unspecified)
system.caches.controllers4.xyzStatsObjectlatency::samples        52148                       # Mem access latency (Unspecified)
system.caches.controllers4.xyzStatsObjectlatency::mean   224.162557                       # Mem access latency (Unspecified)
system.caches.controllers4.xyzStatsObjectlatency::stdev    89.230169                       # Mem access latency (Unspecified)
system.caches.controllers4.xyzStatsObjectlatency::underflows            0      0.00%      0.00% # Mem access latency (Unspecified)
system.caches.controllers4.xyzStatsObjectlatency::0-49999        52148    100.00%    100.00% # Mem access latency (Unspecified)
system.caches.controllers4.xyzStatsObjectlatency::50000-99999            0      0.00%    100.00% # Mem access latency (Unspecified)
system.caches.controllers4.xyzStatsObjectlatency::100000            0      0.00%    100.00% # Mem access latency (Unspecified)
system.caches.controllers4.xyzStatsObjectlatency::overflows            0      0.00%    100.00% # Mem access latency (Unspecified)
system.caches.controllers4.xyzStatsObjectlatency::min_value           15                       # Mem access latency (Unspecified)
system.caches.controllers4.xyzStatsObjectlatency::max_value          728                       # Mem access latency (Unspecified)
system.caches.controllers4.xyzStatsObjectlatency::total        52148                       # Mem access latency (Unspecified)
system.caches.controllers5.xyzStatsObject.total_put            0                       # Total number of put (PutM + PutS) (Unspecified)
system.caches.controllers5.xyzStatsObject.total_put_as_wt            0                       # Total number of put as write through (Unspecified)
system.caches.controllers5.xyzStatsObject.total_putm            0                       # Total number of PutM (Unspecified)
system.caches.controllers5.xyzStatsObject.total_putm_as_wt            0                       # Total number of PutM as write through (Unspecified)
system.caches.controllers5.xyzStatsObject.total_puts            0                       # Total number of PutS (Unspecified)
system.caches.controllers5.xyzStatsObject.total_puts_as_wt            0                       # Total number of PutS as write through (Unspecified)
system.caches.controllers5.xyzStatsObject.total_repl            0                       # Total Replacement (Unspecified)
system.caches.controllers5.xyzStatsObject.total_repl_llc            0                       # Total Replacement of LLC line (Unspecified)
system.caches.controllers5.xyzStatsObject.total_repl_owned            0                       # Total Replacement of owned line (Unspecified)
system.caches.controllers5.xyzStatsObject.total_repl_shared            0                       # Total Replacement of shared line (Unspecified)
system.caches.controllers5.xyzStatsObject.wt_putRatio          nan                       # WT / Put (Unspecified)
system.caches.controllers5.xyzStatsObject.wt_putmRatio          nan                       # PutM WT / PutM (Unspecified)
system.caches.controllers5.xyzStatsObject.wt_putsRatio          nan                       # PutS WT / PutS (Unspecified)
system.caches.controllers5.xyzStatsObjectlatency::samples         2745                       # Mem access latency (Unspecified)
system.caches.controllers5.xyzStatsObjectlatency::mean   240.355556                       # Mem access latency (Unspecified)
system.caches.controllers5.xyzStatsObjectlatency::stdev   130.740503                       # Mem access latency (Unspecified)
system.caches.controllers5.xyzStatsObjectlatency::underflows            0      0.00%      0.00% # Mem access latency (Unspecified)
system.caches.controllers5.xyzStatsObjectlatency::0-49999         2745    100.00%    100.00% # Mem access latency (Unspecified)
system.caches.controllers5.xyzStatsObjectlatency::50000-99999            0      0.00%    100.00% # Mem access latency (Unspecified)
system.caches.controllers5.xyzStatsObjectlatency::100000            0      0.00%    100.00% # Mem access latency (Unspecified)
system.caches.controllers5.xyzStatsObjectlatency::overflows            0      0.00%    100.00% # Mem access latency (Unspecified)
system.caches.controllers5.xyzStatsObjectlatency::min_value           18                       # Mem access latency (Unspecified)
system.caches.controllers5.xyzStatsObjectlatency::max_value          665                       # Mem access latency (Unspecified)
system.caches.controllers5.xyzStatsObjectlatency::total         2745                       # Mem access latency (Unspecified)
system.caches.controllers6.xyzStatsObject.total_put            0                       # Total number of put (PutM + PutS) (Unspecified)
system.caches.controllers6.xyzStatsObject.total_put_as_wt            0                       # Total number of put as write through (Unspecified)
system.caches.controllers6.xyzStatsObject.total_putm            0                       # Total number of PutM (Unspecified)
system.caches.controllers6.xyzStatsObject.total_putm_as_wt            0                       # Total number of PutM as write through (Unspecified)
system.caches.controllers6.xyzStatsObject.total_puts            0                       # Total number of PutS (Unspecified)
system.caches.controllers6.xyzStatsObject.total_puts_as_wt            0                       # Total number of PutS as write through (Unspecified)
system.caches.controllers6.xyzStatsObject.total_repl            0                       # Total Replacement (Unspecified)
system.caches.controllers6.xyzStatsObject.total_repl_llc            0                       # Total Replacement of LLC line (Unspecified)
system.caches.controllers6.xyzStatsObject.total_repl_owned            0                       # Total Replacement of owned line (Unspecified)
system.caches.controllers6.xyzStatsObject.total_repl_shared            0                       # Total Replacement of shared line (Unspecified)
system.caches.controllers6.xyzStatsObject.wt_putRatio          nan                       # WT / Put (Unspecified)
system.caches.controllers6.xyzStatsObject.wt_putmRatio          nan                       # PutM WT / PutM (Unspecified)
system.caches.controllers6.xyzStatsObject.wt_putsRatio          nan                       # PutS WT / PutS (Unspecified)
system.caches.controllers6.xyzStatsObjectlatency::samples         2546                       # Mem access latency (Unspecified)
system.caches.controllers6.xyzStatsObjectlatency::mean   196.963079                       # Mem access latency (Unspecified)
system.caches.controllers6.xyzStatsObjectlatency::stdev   137.052209                       # Mem access latency (Unspecified)
system.caches.controllers6.xyzStatsObjectlatency::underflows            0      0.00%      0.00% # Mem access latency (Unspecified)
system.caches.controllers6.xyzStatsObjectlatency::0-49999         2546    100.00%    100.00% # Mem access latency (Unspecified)
system.caches.controllers6.xyzStatsObjectlatency::50000-99999            0      0.00%    100.00% # Mem access latency (Unspecified)
system.caches.controllers6.xyzStatsObjectlatency::100000            0      0.00%    100.00% # Mem access latency (Unspecified)
system.caches.controllers6.xyzStatsObjectlatency::overflows            0      0.00%    100.00% # Mem access latency (Unspecified)
system.caches.controllers6.xyzStatsObjectlatency::min_value           15                       # Mem access latency (Unspecified)
system.caches.controllers6.xyzStatsObjectlatency::max_value          665                       # Mem access latency (Unspecified)
system.caches.controllers6.xyzStatsObjectlatency::total         2546                       # Mem access latency (Unspecified)
system.caches.controllers7.xyzStatsObject.total_put            0                       # Total number of put (PutM + PutS) (Unspecified)
system.caches.controllers7.xyzStatsObject.total_put_as_wt            0                       # Total number of put as write through (Unspecified)
system.caches.controllers7.xyzStatsObject.total_putm            0                       # Total number of PutM (Unspecified)
system.caches.controllers7.xyzStatsObject.total_putm_as_wt            0                       # Total number of PutM as write through (Unspecified)
system.caches.controllers7.xyzStatsObject.total_puts            0                       # Total number of PutS (Unspecified)
system.caches.controllers7.xyzStatsObject.total_puts_as_wt            0                       # Total number of PutS as write through (Unspecified)
system.caches.controllers7.xyzStatsObject.total_repl            0                       # Total Replacement (Unspecified)
system.caches.controllers7.xyzStatsObject.total_repl_llc            0                       # Total Replacement of LLC line (Unspecified)
system.caches.controllers7.xyzStatsObject.total_repl_owned            0                       # Total Replacement of owned line (Unspecified)
system.caches.controllers7.xyzStatsObject.total_repl_shared            0                       # Total Replacement of shared line (Unspecified)
system.caches.controllers7.xyzStatsObject.wt_putRatio          nan                       # WT / Put (Unspecified)
system.caches.controllers7.xyzStatsObject.wt_putmRatio          nan                       # PutM WT / PutM (Unspecified)
system.caches.controllers7.xyzStatsObject.wt_putsRatio          nan                       # PutS WT / PutS (Unspecified)
system.caches.controllers7.xyzStatsObjectlatency::samples         2358                       # Mem access latency (Unspecified)
system.caches.controllers7.xyzStatsObjectlatency::mean   213.901187                       # Mem access latency (Unspecified)
system.caches.controllers7.xyzStatsObjectlatency::stdev   127.627338                       # Mem access latency (Unspecified)
system.caches.controllers7.xyzStatsObjectlatency::underflows            0      0.00%      0.00% # Mem access latency (Unspecified)
system.caches.controllers7.xyzStatsObjectlatency::0-49999         2358    100.00%    100.00% # Mem access latency (Unspecified)
system.caches.controllers7.xyzStatsObjectlatency::50000-99999            0      0.00%    100.00% # Mem access latency (Unspecified)
system.caches.controllers7.xyzStatsObjectlatency::100000            0      0.00%    100.00% # Mem access latency (Unspecified)
system.caches.controllers7.xyzStatsObjectlatency::overflows            0      0.00%    100.00% # Mem access latency (Unspecified)
system.caches.controllers7.xyzStatsObjectlatency::min_value           15                       # Mem access latency (Unspecified)
system.caches.controllers7.xyzStatsObjectlatency::max_value          722                       # Mem access latency (Unspecified)
system.caches.controllers7.xyzStatsObjectlatency::total         2358                       # Mem access latency (Unspecified)
system.caches.controllers8.xyzStatsObject.total_put        57567                       # Total number of put (PutM + PutS) (Unspecified)
system.caches.controllers8.xyzStatsObject.total_put_as_wt        47426                       # Total number of put as write through (Unspecified)
system.caches.controllers8.xyzStatsObject.total_putm        10836                       # Total number of PutM (Unspecified)
system.caches.controllers8.xyzStatsObject.total_putm_as_wt         9405                       # Total number of PutM as write through (Unspecified)
system.caches.controllers8.xyzStatsObject.total_puts        46731                       # Total number of PutS (Unspecified)
system.caches.controllers8.xyzStatsObject.total_puts_as_wt        38021                       # Total number of PutS as write through (Unspecified)
system.caches.controllers8.xyzStatsObject.total_repl            0                       # Total Replacement (Unspecified)
system.caches.controllers8.xyzStatsObject.total_repl_llc            0                       # Total Replacement of LLC line (Unspecified)
system.caches.controllers8.xyzStatsObject.total_repl_owned            0                       # Total Replacement of owned line (Unspecified)
system.caches.controllers8.xyzStatsObject.total_repl_shared            0                       # Total Replacement of shared line (Unspecified)
system.caches.controllers8.xyzStatsObject.wt_putRatio     0.823840                       # WT / Put (Unspecified)
system.caches.controllers8.xyzStatsObject.wt_putmRatio     0.867940                       # PutM WT / PutM (Unspecified)
system.caches.controllers8.xyzStatsObject.wt_putsRatio     0.813614                       # PutS WT / PutS (Unspecified)
system.caches.controllers8.xyzStatsObjectlatency::samples            0                       # Mem access latency (Unspecified)
system.caches.controllers8.xyzStatsObjectlatency::mean          nan                       # Mem access latency (Unspecified)
system.caches.controllers8.xyzStatsObjectlatency::stdev          nan                       # Mem access latency (Unspecified)
system.caches.controllers8.xyzStatsObjectlatency::underflows            0                       # Mem access latency (Unspecified)
system.caches.controllers8.xyzStatsObjectlatency::0-49999            0                       # Mem access latency (Unspecified)
system.caches.controllers8.xyzStatsObjectlatency::50000-99999            0                       # Mem access latency (Unspecified)
system.caches.controllers8.xyzStatsObjectlatency::100000            0                       # Mem access latency (Unspecified)
system.caches.controllers8.xyzStatsObjectlatency::overflows            0                       # Mem access latency (Unspecified)
system.caches.controllers8.xyzStatsObjectlatency::min_value            0                       # Mem access latency (Unspecified)
system.caches.controllers8.xyzStatsObjectlatency::max_value            0                       # Mem access latency (Unspecified)
system.caches.controllers8.xyzStatsObjectlatency::total            0                       # Mem access latency (Unspecified)

---------- End Simulation Statistics   ----------
