
---------- Begin Simulation Statistics ----------
simSeconds                                   0.689428                       # Number of seconds simulated (Second)
simTicks                                 689427583000                       # Number of ticks simulated (Tick)
finalTick                                689427583000                       # Number of ticks from beginning of simulation (restored from checkpoints and never reset) (Tick)
simFreq                                  1000000000000                       # The number of ticks per simulated second ((Tick/Second))
hostSeconds                                    183.47                       # Real time elapsed on the host (Second)
hostTickRate                               3757721357                       # The number of ticks simulated per host second (ticks/s) ((Tick/Second))
hostMemory                                    4952588                       # Number of bytes of host memory used (Byte)
simInsts                                     98167513                       # Number of instructions simulated (Count)
simOps                                      163598484                       # Number of ops (including micro ops) simulated (Count)
hostInstRate                                   535059                       # Simulator instruction rate (inst/s) ((Count/Second))
hostOpRate                                     891687                       # Simulator op (including micro ops) rate (op/s) ((Count/Second))
system.caches.m_outstandReqHistSeqr::bucket_size            1                       (Unspecified)
system.caches.m_outstandReqHistSeqr::max_bucket            9                       (Unspecified)
system.caches.m_outstandReqHistSeqr::samples    180761093                       (Unspecified)
system.caches.m_outstandReqHistSeqr::mean            1                       (Unspecified)
system.caches.m_outstandReqHistSeqr::gmean            1                       (Unspecified)
system.caches.m_outstandReqHistSeqr      |           0      0.00%      0.00% |   180761093    100.00%    100.00% |           0      0.00%    100.00% |           0      0.00%    100.00% |           0      0.00%    100.00% |           0      0.00%    100.00% |           0      0.00%    100.00% |           0      0.00%    100.00% |           0      0.00%    100.00% |           0      0.00%    100.00% (Unspecified)
system.caches.m_outstandReqHistSeqr::total    180761093                       (Unspecified)
system.caches.m_latencyHistSeqr::bucket_size          128                       (Unspecified)
system.caches.m_latencyHistSeqr::max_bucket         1279                       (Unspecified)
system.caches.m_latencyHistSeqr::samples    180761093                       (Unspecified)
system.caches.m_latencyHistSeqr::mean       13.962757                       (Unspecified)
system.caches.m_latencyHistSeqr::gmean       1.191278                       (Unspecified)
system.caches.m_latencyHistSeqr::stdev      92.956522                       (Unspecified)
system.caches.m_latencyHistSeqr          |   176756116     97.78%     97.78% |      675717      0.37%     98.16% |      486218      0.27%     98.43% |      496227      0.27%     98.70% |      592301      0.33%     99.03% |      705356      0.39%     99.42% |      605782      0.34%     99.75% |      432058      0.24%     99.99% |       11318      0.01%    100.00% |           0      0.00%    100.00% (Unspecified)
system.caches.m_latencyHistSeqr::total      180761093                       (Unspecified)
system.caches.m_hitLatencyHistSeqr::bucket_size            1                       (Unspecified)
system.caches.m_hitLatencyHistSeqr::max_bucket            9                       (Unspecified)
system.caches.m_hitLatencyHistSeqr::samples    174398406                       (Unspecified)
system.caches.m_hitLatencyHistSeqr::mean            1                       (Unspecified)
system.caches.m_hitLatencyHistSeqr::gmean            1                       (Unspecified)
system.caches.m_hitLatencyHistSeqr       |           0      0.00%      0.00% |   174398406    100.00%    100.00% |           0      0.00%    100.00% |           0      0.00%    100.00% |           0      0.00%    100.00% |           0      0.00%    100.00% |           0      0.00%    100.00% |           0      0.00%    100.00% |           0      0.00%    100.00% |           0      0.00%    100.00% (Unspecified)
system.caches.m_hitLatencyHistSeqr::total    174398406                       (Unspecified)
system.caches.m_missLatencyHistSeqr::bucket_size          128                       (Unspecified)
system.caches.m_missLatencyHistSeqr::max_bucket         1279                       (Unspecified)
system.caches.m_missLatencyHistSeqr::samples      6362687                       (Unspecified)
system.caches.m_missLatencyHistSeqr::mean   369.266130                       (Unspecified)
system.caches.m_missLatencyHistSeqr::gmean   144.376078                       (Unspecified)
system.caches.m_missLatencyHistSeqr::stdev   338.582859                       (Unspecified)
system.caches.m_missLatencyHistSeqr      |     2357710     37.06%     37.06% |      675717     10.62%     47.68% |      486218      7.64%     55.32% |      496227      7.80%     63.12% |      592301      9.31%     72.42% |      705356     11.09%     83.51% |      605782      9.52%     93.03% |      432058      6.79%     99.82% |       11318      0.18%    100.00% |           0      0.00%    100.00% (Unspecified)
system.caches.m_missLatencyHistSeqr::total      6362687                       (Unspecified)
system.caches.L0Cache_Controller.Load    |     8107016     25.13%     25.13% |     8006567     24.81%     49.94% |     8061303     24.98%     74.92% |     8090701     25.08%    100.00% (Unspecified)
system.caches.L0Cache_Controller.Load::total     32265587                       (Unspecified)
system.caches.L0Cache_Controller.Ifetch  |    35593207     25.18%     25.18% |    35054048     24.80%     49.98% |    35306934     24.98%     74.96% |    35399095     25.04%    100.00% (Unspecified)
system.caches.L0Cache_Controller.Ifetch::total    141353284                       (Unspecified)
system.caches.L0Cache_Controller.Store   |     1811094     25.36%     25.36% |     1771604     24.80%     50.16% |     1779547     24.92%     75.08% |     1779977     24.92%    100.00% (Unspecified)
system.caches.L0Cache_Controller.Store::total      7142222                       (Unspecified)
system.caches.L0Cache_Controller.Replacement |     1220570     24.79%     24.79% |     1199118     24.36%     49.15% |     1281071     26.02%     75.17% |     1222659     24.83%    100.00% (Unspecified)
system.caches.L0Cache_Controller.Replacement::total      4923418                       (Unspecified)
system.caches.L0Cache_Controller.Inv     |      702703     25.35%     25.35% |      681729     24.59%     49.94% |      695052     25.07%     75.01% |      692687     24.99%    100.00% (Unspecified)
system.caches.L0Cache_Controller.Inv::total      2772171                       (Unspecified)
system.caches.L0Cache_Controller.Data    |     1554883     24.91%     24.91% |     1521909     24.39%     49.30% |     1613683     25.86%     75.15% |     1550647     24.85%    100.00% (Unspecified)
system.caches.L0Cache_Controller.Data::total      6241122                       (Unspecified)
system.caches.L0Cache_Controller.ExData  |       29565     24.32%     24.32% |       30000     24.68%     49.00% |       29975     24.66%     73.66% |       32025     26.34%    100.00% (Unspecified)
system.caches.L0Cache_Controller.ExData::total       121565                       (Unspecified)
system.caches.L0Cache_Controller.I.Load  |     1117929     24.88%     24.88% |     1103586     24.56%     49.43% |     1143905     25.45%     74.89% |     1128525     25.11%    100.00% (Unspecified)
system.caches.L0Cache_Controller.I.Load::total      4493945                       (Unspecified)
system.caches.L0Cache_Controller.I.Ifetch |      120553     26.54%     26.54% |      107613     23.69%     50.22% |      113287     24.94%     75.16% |      112837     24.84%    100.00% (Unspecified)
system.caches.L0Cache_Controller.I.Ifetch::total       454290                       (Unspecified)
system.caches.L0Cache_Controller.I.Store |      172845     23.82%     23.82% |      168737     23.26%     47.08% |      214339     29.54%     76.62% |      169603     23.38%    100.00% (Unspecified)
system.caches.L0Cache_Controller.I.Store::total       725524                       (Unspecified)
system.caches.L0Cache_Controller.I.Inv   |      512006     25.32%     25.32% |      500968     24.78%     50.10% |      504649     24.96%     75.05% |      504439     24.95%    100.00% (Unspecified)
system.caches.L0Cache_Controller.I.Inv::total      2022062                       (Unspecified)
system.caches.L0Cache_Controller.IS_D.Data |     1208917     25.05%     25.05% |     1181199     24.47%     49.52% |     1227217     25.43%     74.94% |     1209337     25.06%    100.00% (Unspecified)
system.caches.L0Cache_Controller.IS_D.Data::total      4826670                       (Unspecified)
system.caches.L0Cache_Controller.IS_D.ExData |       29565     24.32%     24.32% |       30000     24.68%     49.00% |       29975     24.66%     73.66% |       32025     26.34%    100.00% (Unspecified)
system.caches.L0Cache_Controller.IS_D.ExData::total       121565                       (Unspecified)
system.caches.L0Cache_Controller.IM_D.Data |      345966     24.46%     24.46% |      340710     24.09%     48.55% |      386466     27.32%     75.87% |      341310     24.13%    100.00% (Unspecified)
system.caches.L0Cache_Controller.IM_D.Data::total      1414452                       (Unspecified)
system.caches.L0Cache_Controller.S.Load  |     5571863     25.11%     25.11% |     5518673     24.87%     49.98% |     5535340     24.94%     74.92% |     5565416     25.08%    100.00% (Unspecified)
system.caches.L0Cache_Controller.S.Load::total     22191292                       (Unspecified)
system.caches.L0Cache_Controller.S.Ifetch |    35472654     25.18%     25.18% |    34946435     24.80%     49.98% |    35193647     24.98%     74.96% |    35286258     25.04%    100.00% (Unspecified)
system.caches.L0Cache_Controller.S.Ifetch::total    140898994                       (Unspecified)
system.caches.L0Cache_Controller.S.Store |      173121     25.13%     25.13% |      171973     24.96%     50.09% |      172127     24.98%     75.08% |      171707     24.92%    100.00% (Unspecified)
system.caches.L0Cache_Controller.S.Store::total       688928                       (Unspecified)
system.caches.L0Cache_Controller.S.Replacement |      876192     24.97%     24.97% |      857796     24.44%     49.41% |      896316     25.54%     74.95% |      879272     25.05%    100.00% (Unspecified)
system.caches.L0Cache_Controller.S.Replacement::total      3509576                       (Unspecified)
system.caches.L0Cache_Controller.S.Inv   |      159557     25.41%     25.41% |      151388     24.11%     49.51% |      158732     25.28%     74.79% |      158315     25.21%    100.00% (Unspecified)
system.caches.L0Cache_Controller.S.Inv::total       627992                       (Unspecified)
system.caches.L0Cache_Controller.M.Load  |     1417224     25.40%     25.40% |     1384308     24.81%     50.20% |     1382058     24.77%     74.97% |     1396760     25.03%    100.00% (Unspecified)
system.caches.L0Cache_Controller.M.Load::total      5580350                       (Unspecified)
system.caches.L0Cache_Controller.M.Store |     1465128     25.58%     25.58% |     1430894     24.98%     50.56% |     1393081     24.32%     74.88% |     1438667     25.12%    100.00% (Unspecified)
system.caches.L0Cache_Controller.M.Store::total      5727770                       (Unspecified)
system.caches.L0Cache_Controller.M.Replacement |      344378     24.36%     24.36% |      341322     24.14%     48.50% |      384755     27.21%     75.71% |      343387     24.29%    100.00% (Unspecified)
system.caches.L0Cache_Controller.M.Replacement::total      1413842                       (Unspecified)
system.caches.L0Cache_Controller.M.Inv   |       31140     25.50%     25.50% |       29373     24.05%     49.55% |       31671     25.93%     75.49% |       29933     24.51%    100.00% (Unspecified)
system.caches.L0Cache_Controller.M.Inv::total       122117                       (Unspecified)
system.caches.L1Cache_Controller.Load    |     1238482     25.03%     25.03% |     1211199     24.48%     49.51% |     1257192     25.41%     74.91% |     1241362     25.09%    100.00% (Unspecified)
system.caches.L1Cache_Controller.Load::total      4948235                       (Unspecified)
system.caches.L1Cache_Controller.Store   |      345966     24.46%     24.46% |      340710     24.09%     48.55% |      386466     27.32%     75.87% |      341310     24.13%    100.00% (Unspecified)
system.caches.L1Cache_Controller.Store::total      1414452                       (Unspecified)
system.caches.L1Cache_Controller.PutM    |      344378     24.36%     24.36% |      341322     24.14%     48.50% |      384755     27.21%     75.71% |      343387     24.29%    100.00% (Unspecified)
system.caches.L1Cache_Controller.PutM::total      1413842                       (Unspecified)
system.caches.L1Cache_Controller.Replacement |     2040740     25.38%     25.38% |     1989166     24.74%     50.11% |     2006424     24.95%     75.06% |     2005572     24.94%    100.00% (Unspecified)
system.caches.L1Cache_Controller.Replacement::total      8041902                       (Unspecified)
system.caches.L1Cache_Controller.FwdGetM |       26916     23.41%     23.41% |       27288     23.73%     47.14% |       31151     27.09%     74.24% |       29624     25.76%    100.00% (Unspecified)
system.caches.L1Cache_Controller.FwdGetM::total       114979                       (Unspecified)
system.caches.L1Cache_Controller.Inv     |        3766     21.60%     21.60% |        3538     20.29%     41.89% |        5294     30.36%     72.24% |        4840     27.76%    100.00% (Unspecified)
system.caches.L1Cache_Controller.Inv::total        17438                       (Unspecified)
system.caches.L1Cache_Controller.PutAck  |      999305     25.35%     25.35% |      975735     24.75%     50.10% |      983096     24.94%     75.04% |      984046     24.96%    100.00% (Unspecified)
system.caches.L1Cache_Controller.PutAck::total      3942182                       (Unspecified)
system.caches.L1Cache_Controller.DataDirNoAcks |     1175500     25.27%     25.27% |     1150323     24.73%     50.01% |     1163622     25.02%     75.02% |     1161647     24.98%    100.00% (Unspecified)
system.caches.L1Cache_Controller.DataDirNoAcks::total      4651092                       (Unspecified)
system.caches.L1Cache_Controller.DataDirAcks |          20     38.46%     38.46% |          15     28.85%     67.31% |           3      5.77%     73.08% |          14     26.92%    100.00% (Unspecified)
system.caches.L1Cache_Controller.DataDirAcks::total           52                       (Unspecified)
system.caches.L1Cache_Controller.DataOwner |       16256     25.35%     25.35% |       16582     25.86%     51.21% |       15035     23.44%     74.65% |       16257     25.35%    100.00% (Unspecified)
system.caches.L1Cache_Controller.DataOwner::total        64130                       (Unspecified)
system.caches.L1Cache_Controller.InvAck  |        4859     27.95%     27.95% |        5102     29.35%     57.29% |        3468     19.95%     77.24% |        3957     22.76%    100.00% (Unspecified)
system.caches.L1Cache_Controller.InvAck::total        17386                       (Unspecified)
system.caches.L1Cache_Controller.LastInvAck |          20     38.46%     38.46% |          15     28.85%     67.31% |           3      5.77%     73.08% |          14     26.92%    100.00% (Unspecified)
system.caches.L1Cache_Controller.LastInvAck::total           52                       (Unspecified)
system.caches.L1Cache_Controller.WB_Data |       31140     25.50%     25.50% |       29373     24.05%     49.55% |       31671     25.93%     75.49% |       29933     24.51%    100.00% (Unspecified)
system.caches.L1Cache_Controller.WB_Data::total       122117                       (Unspecified)
system.caches.L1Cache_Controller.I.Load  |      857009     25.31%     25.31% |      836596     24.70%     50.01% |      846371     24.99%     75.00% |      846523     25.00%    100.00% (Unspecified)
system.caches.L1Cache_Controller.I.Load::total      3386499                       (Unspecified)
system.caches.L1Cache_Controller.I.Store |      161085     25.26%     25.26% |      157890     24.76%     50.02% |      159582     25.03%     75.05% |      159108     24.95%    100.00% (Unspecified)
system.caches.L1Cache_Controller.I.Store::total       637665                       (Unspecified)
system.caches.L1Cache_Controller.IS_D.FwdGetM |         145     21.11%     21.11% |         183     26.64%     47.74% |         194     28.24%     75.98% |         165     24.02%    100.00% (Unspecified)
system.caches.L1Cache_Controller.IS_D.FwdGetM::total          687                       (Unspecified)
system.caches.L1Cache_Controller.IS_D.DataDirNoAcks |      845347     25.30%     25.30% |      824884     24.69%     49.98% |      836182     25.02%     75.01% |      835135     24.99%    100.00% (Unspecified)
system.caches.L1Cache_Controller.IS_D.DataDirNoAcks::total      3341548                       (Unspecified)
system.caches.L1Cache_Controller.IS_D.DataOwner |       11662     25.94%     25.94% |       11712     26.06%     52.00% |       10189     22.67%     74.67% |       11388     25.33%    100.00% (Unspecified)
system.caches.L1Cache_Controller.IS_D.DataOwner::total        44951                       (Unspecified)
system.caches.L1Cache_Controller.IM_AD.FwdGetM |         241     21.61%     21.61% |         263     23.59%     45.20% |         320     28.70%     73.90% |         291     26.10%    100.00% (Unspecified)
system.caches.L1Cache_Controller.IM_AD.FwdGetM::total         1115                       (Unspecified)
system.caches.L1Cache_Controller.IM_AD.DataDirNoAcks |      156482     25.30%     25.30% |      153008     24.74%     50.04% |      154737     25.02%     75.06% |      154236     24.94%    100.00% (Unspecified)
system.caches.L1Cache_Controller.IM_AD.DataDirNoAcks::total       618463                       (Unspecified)
system.caches.L1Cache_Controller.IM_AD.DataDirAcks |          12     35.29%     35.29% |          14     41.18%     76.47% |           1      2.94%     79.41% |           7     20.59%    100.00% (Unspecified)
system.caches.L1Cache_Controller.IM_AD.DataDirAcks::total           34                       (Unspecified)
system.caches.L1Cache_Controller.IM_AD.DataOwner |        4594     23.95%     23.95% |        4870     25.39%     49.35% |        4846     25.27%     74.61% |        4869     25.39%    100.00% (Unspecified)
system.caches.L1Cache_Controller.IM_AD.DataOwner::total        19179                       (Unspecified)
system.caches.L1Cache_Controller.IM_AD.InvAck |        3925     27.99%     27.99% |        4603     32.83%     60.82% |        2385     17.01%     77.83% |        3108     22.17%    100.00% (Unspecified)
system.caches.L1Cache_Controller.IM_AD.InvAck::total        14021                       (Unspecified)
system.caches.L1Cache_Controller.IM_A.LastInvAck |          12     35.29%     35.29% |          14     41.18%     76.47% |           1      2.94%     79.41% |           7     20.59%    100.00% (Unspecified)
system.caches.L1Cache_Controller.IM_A.LastInvAck::total           34                       (Unspecified)
system.caches.L1Cache_Controller.S.Load  |      363570     24.48%     24.48% |      356315     23.99%     48.47% |      391035     26.33%     74.80% |      374202     25.20%    100.00% (Unspecified)
system.caches.L1Cache_Controller.S.Load::total      1485122                       (Unspecified)
system.caches.L1Cache_Controller.S.Store |      173682     25.13%     25.13% |      172434     24.95%     50.08% |      172707     24.99%     75.07% |      172287     24.93%    100.00% (Unspecified)
system.caches.L1Cache_Controller.S.Store::total       691110                       (Unspecified)
system.caches.L1Cache_Controller.S.Replacement |      667810     25.37%     25.37% |      648820     24.65%     50.01% |      658100     25.00%     75.01% |      657918     24.99%    100.00% (Unspecified)
system.caches.L1Cache_Controller.S.Replacement::total      2632648                       (Unspecified)
system.caches.L1Cache_Controller.S.Inv   |        3747     21.55%     21.55% |        3533     20.32%     41.87% |        5278     30.35%     72.22% |        4831     27.78%    100.00% (Unspecified)
system.caches.L1Cache_Controller.S.Inv::total        17389                       (Unspecified)
system.caches.L1Cache_Controller.SM_AD.Inv |           3     27.27%     27.27% |           2     18.18%     45.45% |           2     18.18%     63.64% |           4     36.36%    100.00% (Unspecified)
system.caches.L1Cache_Controller.SM_AD.Inv::total           11                       (Unspecified)
system.caches.L1Cache_Controller.SM_AD.DataDirNoAcks |      173671     25.13%     25.13% |      172431     24.95%     50.08% |      172703     24.99%     75.07% |      172276     24.93%    100.00% (Unspecified)
system.caches.L1Cache_Controller.SM_AD.DataDirNoAcks::total       691081                       (Unspecified)
system.caches.L1Cache_Controller.SM_AD.DataDirAcks |           8     44.44%     44.44% |           1      5.56%     50.00% |           2     11.11%     61.11% |           7     38.89%    100.00% (Unspecified)
system.caches.L1Cache_Controller.SM_AD.DataDirAcks::total           18                       (Unspecified)
system.caches.L1Cache_Controller.SM_AD.InvAck |         934     27.76%     27.76% |         499     14.83%     42.59% |        1083     32.18%     74.77% |         849     25.23%    100.00% (Unspecified)
system.caches.L1Cache_Controller.SM_AD.InvAck::total         3365                       (Unspecified)
system.caches.L1Cache_Controller.SM_A.LastInvAck |           8     44.44%     44.44% |           1      5.56%     50.00% |           2     11.11%     61.11% |           7     38.89%    100.00% (Unspecified)
system.caches.L1Cache_Controller.SM_A.LastInvAck::total           18                       (Unspecified)
system.caches.L1Cache_Controller.M.Load  |       17903     23.37%     23.37% |       18288     23.87%     47.24% |       19786     25.83%     73.06% |       20637     26.94%    100.00% (Unspecified)
system.caches.L1Cache_Controller.M.Load::total        76614                       (Unspecified)
system.caches.L1Cache_Controller.M.Store |       11199     13.07%     13.07% |       10386     12.12%     25.19% |       54177     63.23%     88.43% |        9915     11.57%    100.00% (Unspecified)
system.caches.L1Cache_Controller.M.Store::total        85677                       (Unspecified)
system.caches.L1Cache_Controller.M.Replacement |      331495     25.31%     25.31% |      326915     24.96%     50.28% |      324996     24.82%     75.10% |      326128     24.90%    100.00% (Unspecified)
system.caches.L1Cache_Controller.M.Replacement::total      1309534                       (Unspecified)
system.caches.L1Cache_Controller.M.FwdGetM |       14914     23.26%     23.26% |       15099     23.55%     46.82% |       17458     27.23%     74.05% |       16634     25.95%    100.00% (Unspecified)
system.caches.L1Cache_Controller.M.FwdGetM::total        64105                       (Unspecified)
system.caches.L1Cache_Controller.M_P.PutM |      344372     24.36%     24.36% |      341319     24.14%     48.50% |      384752     27.21%     75.71% |      343382     24.29%    100.00% (Unspecified)
system.caches.L1Cache_Controller.M_P.PutM::total      1413825                       (Unspecified)
system.caches.L1Cache_Controller.M_P.Replacement |       19695     26.76%     26.76% |       17736     24.09%     50.85% |       18666     25.36%     76.21% |       17513     23.79%    100.00% (Unspecified)
system.caches.L1Cache_Controller.M_P.Replacement::total        73610                       (Unspecified)
system.caches.L1Cache_Controller.M_P.FwdGetM |       11451     23.60%     23.60% |       11640     23.99%     47.59% |       13008     26.81%     74.39% |       12425     25.61%    100.00% (Unspecified)
system.caches.L1Cache_Controller.M_P.FwdGetM::total        48524                       (Unspecified)
system.caches.L1Cache_Controller.MP_D.PutM |           6     35.29%     35.29% |           3     17.65%     52.94% |           3     17.65%     70.59% |           5     29.41%    100.00% (Unspecified)
system.caches.L1Cache_Controller.MP_D.PutM::total           17                       (Unspecified)
system.caches.L1Cache_Controller.MP_D.Replacement |       19726     26.75%     26.75% |       17757     24.08%     50.83% |       18725     25.39%     76.23% |       17530     23.77%    100.00% (Unspecified)
system.caches.L1Cache_Controller.MP_D.Replacement::total        73738                       (Unspecified)
system.caches.L1Cache_Controller.MP_D.FwdGetM |         154     29.45%     29.45% |         101     19.31%     48.76% |         160     30.59%     79.35% |         108     20.65%    100.00% (Unspecified)
system.caches.L1Cache_Controller.MP_D.FwdGetM::total          523                       (Unspecified)
system.caches.L1Cache_Controller.MP_D.WB_Data |       31140     25.50%     25.50% |       29373     24.05%     49.55% |       31671     25.93%     75.49% |       29933     24.51%    100.00% (Unspecified)
system.caches.L1Cache_Controller.MP_D.WB_Data::total       122117                       (Unspecified)
system.caches.L1Cache_Controller.MI_A.Replacement |      332272     25.32%     25.32% |      327455     24.95%     50.27% |      325733     24.82%     75.09% |      326843     24.91%    100.00% (Unspecified)
system.caches.L1Cache_Controller.MI_A.Replacement::total      1312303                       (Unspecified)
system.caches.L1Cache_Controller.MI_A.FwdGetM |          11     44.00%     44.00% |           2      8.00%     52.00% |          11     44.00%     96.00% |           1      4.00%    100.00% (Unspecified)
system.caches.L1Cache_Controller.MI_A.FwdGetM::total           25                       (Unspecified)
system.caches.L1Cache_Controller.MI_A.PutAck |      331484     25.31%     25.31% |      326913     24.96%     50.28% |      324985     24.82%     75.10% |      326127     24.90%    100.00% (Unspecified)
system.caches.L1Cache_Controller.MI_A.PutAck::total      1309509                       (Unspecified)
system.caches.L1Cache_Controller.SI_A.Replacement |      669742     25.37%     25.37% |      650483     24.64%     50.01% |      660204     25.01%     75.01% |      659640     24.99%    100.00% (Unspecified)
system.caches.L1Cache_Controller.SI_A.Replacement::total      2640069                       (Unspecified)
system.caches.L1Cache_Controller.SI_A.Inv |          16     42.11%     42.11% |           3      7.89%     50.00% |          14     36.84%     86.84% |           5     13.16%    100.00% (Unspecified)
system.caches.L1Cache_Controller.SI_A.Inv::total           38                       (Unspecified)
system.caches.L1Cache_Controller.SI_A.PutAck |      667794     25.37%     25.37% |      648817     24.65%     50.01% |      658086     25.00%     75.01% |      657913     24.99%    100.00% (Unspecified)
system.caches.L1Cache_Controller.SI_A.PutAck::total      2632610                       (Unspecified)
system.caches.L1Cache_Controller.II_A.PutAck |          27     42.86%     42.86% |           5      7.94%     50.79% |          25     39.68%     90.48% |           6      9.52%    100.00% (Unspecified)
system.caches.L1Cache_Controller.II_A.PutAck::total           63                       (Unspecified)
system.caches.Directory_Controller.GetS       3386499      0.00%      0.00% (Unspecified)
system.caches.Directory_Controller.GetM       1328775      0.00%      0.00% (Unspecified)
system.caches.Directory_Controller.PutSNotLast       509573      0.00%      0.00% (Unspecified)
system.caches.Directory_Controller.PutSNotLastNonSharer           38      0.00%      0.00% (Unspecified)
system.caches.Directory_Controller.PutSLast       749120      0.00%      0.00% (Unspecified)
system.caches.Directory_Controller.PutSLastWT      1373917      0.00%      0.00% (Unspecified)
system.caches.Directory_Controller.PutMOwner       399511      0.00%      0.00% (Unspecified)
system.caches.Directory_Controller.PutMOwnerWT       909998      0.00%      0.00% (Unspecified)
system.caches.Directory_Controller.PutMNonOwner           25      0.00%      0.00% (Unspecified)
system.caches.Directory_Controller.Sync        206486      0.00%      0.00% (Unspecified)
system.caches.Directory_Controller.MemData      2415109      0.00%      0.00% (Unspecified)
system.caches.Directory_Controller.LastMemAck      2490401      0.00%      0.00% (Unspecified)
system.caches.Directory_Controller.I.GetS      1867934      0.00%      0.00% (Unspecified)
system.caches.Directory_Controller.I.GetM       547175      0.00%      0.00% (Unspecified)
system.caches.Directory_Controller.S.GetS       513567      0.00%      0.00% (Unspecified)
system.caches.Directory_Controller.S.GetM       704722      0.00%      0.00% (Unspecified)
system.caches.Directory_Controller.S.PutSNotLast       509573      0.00%      0.00% (Unspecified)
system.caches.Directory_Controller.S.PutSLast       749120      0.00%      0.00% (Unspecified)
system.caches.Directory_Controller.S.PutSLastWT      1373917      0.00%      0.00% (Unspecified)
system.caches.Directory_Controller.M.GetS        44951      0.00%      0.00% (Unspecified)
system.caches.Directory_Controller.M.GetM        19179      0.00%      0.00% (Unspecified)
system.caches.Directory_Controller.M.PutSNotLastNonSharer           38      0.00%      0.00% (Unspecified)
system.caches.Directory_Controller.M.PutMOwner       399511      0.00%      0.00% (Unspecified)
system.caches.Directory_Controller.M.PutMOwnerWT       909998      0.00%      0.00% (Unspecified)
system.caches.Directory_Controller.M.PutMNonOwner           25      0.00%      0.00% (Unspecified)
system.caches.Directory_Controller.LLCOnly.GetS       960047      0.00%      0.00% (Unspecified)
system.caches.Directory_Controller.LLCOnly.GetM        57699      0.00%      0.00% (Unspecified)
system.caches.Directory_Controller.LLCOnly.Sync       206486      0.00%      0.00% (Unspecified)
system.caches.Directory_Controller.LLCOnly_m.LastMemAck      1580403      0.00%      0.00% (Unspecified)
system.caches.Directory_Controller.S_m.MemData      1867934      0.00%      0.00% (Unspecified)
system.caches.Directory_Controller.M_m.MemData       547175      0.00%      0.00% (Unspecified)
system.caches.Directory_Controller.MI_m.LastMemAck       909998      0.00%      0.00% (Unspecified)
system.caches.RequestType.LD.latency_hist_seqr::bucket_size          128                       (Unspecified)
system.caches.RequestType.LD.latency_hist_seqr::max_bucket         1279                       (Unspecified)
system.caches.RequestType.LD.latency_hist_seqr::samples     32265587                       (Unspecified)
system.caches.RequestType.LD.latency_hist_seqr::mean    50.681683                       (Unspecified)
system.caches.RequestType.LD.latency_hist_seqr::gmean     1.950995                       (Unspecified)
system.caches.RequestType.LD.latency_hist_seqr::stdev   176.956023                       (Unspecified)
system.caches.RequestType.LD.latency_hist_seqr |    29651423     91.90%     91.90% |      317244      0.98%     92.88% |      235023      0.73%     93.61% |      333430      1.03%     94.64% |      484866      1.50%     96.15% |      581035      1.80%     97.95% |      434445      1.35%     99.29% |      219688      0.68%     99.97% |        8433      0.03%    100.00% |           0      0.00%    100.00% (Unspecified)
system.caches.RequestType.LD.latency_hist_seqr::total     32265587                       (Unspecified)
system.caches.RequestType.LD.hit_latency_hist_seqr::bucket_size            1                       (Unspecified)
system.caches.RequestType.LD.hit_latency_hist_seqr::max_bucket            9                       (Unspecified)
system.caches.RequestType.LD.hit_latency_hist_seqr::samples     27771642                       (Unspecified)
system.caches.RequestType.LD.hit_latency_hist_seqr::mean            1                       (Unspecified)
system.caches.RequestType.LD.hit_latency_hist_seqr::gmean            1                       (Unspecified)
system.caches.RequestType.LD.hit_latency_hist_seqr |           0      0.00%      0.00% |    27771642    100.00%    100.00% |           0      0.00%    100.00% |           0      0.00%    100.00% |           0      0.00%    100.00% |           0      0.00%    100.00% |           0      0.00%    100.00% |           0      0.00%    100.00% |           0      0.00%    100.00% |           0      0.00%    100.00% (Unspecified)
system.caches.RequestType.LD.hit_latency_hist_seqr::total     27771642                       (Unspecified)
system.caches.RequestType.LD.miss_latency_hist_seqr::bucket_size          128                       (Unspecified)
system.caches.RequestType.LD.miss_latency_hist_seqr::max_bucket         1279                       (Unspecified)
system.caches.RequestType.LD.miss_latency_hist_seqr::samples      4493945                       (Unspecified)
system.caches.RequestType.LD.miss_latency_hist_seqr::mean   357.704114                       (Unspecified)
system.caches.RequestType.LD.miss_latency_hist_seqr::gmean   121.332937                       (Unspecified)
system.caches.RequestType.LD.miss_latency_hist_seqr::stdev   339.569986                       (Unspecified)
system.caches.RequestType.LD.miss_latency_hist_seqr |     1879781     41.83%     41.83% |      317244      7.06%     48.89% |      235023      5.23%     54.12% |      333430      7.42%     61.54% |      484866     10.79%     72.33% |      581035     12.93%     85.26% |      434445      9.67%     94.92% |      219688      4.89%     99.81% |        8433      0.19%    100.00% |           0      0.00%    100.00% (Unspecified)
system.caches.RequestType.LD.miss_latency_hist_seqr::total      4493945                       (Unspecified)
system.caches.RequestType.ST.latency_hist_seqr::bucket_size          128                       (Unspecified)
system.caches.RequestType.ST.latency_hist_seqr::max_bucket         1279                       (Unspecified)
system.caches.RequestType.ST.latency_hist_seqr::samples      7028171                       (Unspecified)
system.caches.RequestType.ST.latency_hist_seqr::mean    85.611107                       (Unspecified)
system.caches.RequestType.ST.latency_hist_seqr::gmean     2.964742                       (Unspecified)
system.caches.RequestType.ST.latency_hist_seqr::stdev   230.450130                       (Unspecified)
system.caches.RequestType.ST.latency_hist_seqr |     5928246     84.35%     84.35% |      298927      4.25%     88.60% |      198400      2.82%     91.43% |      106515      1.52%     92.94% |       52789      0.75%     93.69% |       85130      1.21%     94.90% |      152504      2.17%     97.07% |      202842      2.89%     99.96% |        2818      0.04%    100.00% |           0      0.00%    100.00% (Unspecified)
system.caches.RequestType.ST.latency_hist_seqr::total      7028171                       (Unspecified)
system.caches.RequestType.ST.hit_latency_hist_seqr::bucket_size            1                       (Unspecified)
system.caches.RequestType.ST.hit_latency_hist_seqr::max_bucket            9                       (Unspecified)
system.caches.RequestType.ST.hit_latency_hist_seqr::samples      5635141                       (Unspecified)
system.caches.RequestType.ST.hit_latency_hist_seqr::mean            1                       (Unspecified)
system.caches.RequestType.ST.hit_latency_hist_seqr::gmean            1                       (Unspecified)
system.caches.RequestType.ST.hit_latency_hist_seqr |           0      0.00%      0.00% |     5635141    100.00%    100.00% |           0      0.00%    100.00% |           0      0.00%    100.00% |           0      0.00%    100.00% |           0      0.00%    100.00% |           0      0.00%    100.00% |           0      0.00%    100.00% |           0      0.00%    100.00% |           0      0.00%    100.00% (Unspecified)
system.caches.RequestType.ST.hit_latency_hist_seqr::total      5635141                       (Unspecified)
system.caches.RequestType.ST.miss_latency_hist_seqr::bucket_size          128                       (Unspecified)
system.caches.RequestType.ST.miss_latency_hist_seqr::max_bucket         1279                       (Unspecified)
system.caches.RequestType.ST.miss_latency_hist_seqr::samples      1393030                       (Unspecified)
system.caches.RequestType.ST.miss_latency_hist_seqr::mean   427.883362                       (Unspecified)
system.caches.RequestType.ST.miss_latency_hist_seqr::gmean   240.595468                       (Unspecified)
system.caches.RequestType.ST.miss_latency_hist_seqr::stdev   349.039562                       (Unspecified)
system.caches.RequestType.ST.miss_latency_hist_seqr |      293105     21.04%     21.04% |      298927     21.46%     42.50% |      198400     14.24%     56.74% |      106515      7.65%     64.39% |       52789      3.79%     68.18% |       85130      6.11%     74.29% |      152504     10.95%     85.24% |      202842     14.56%     99.80% |        2818      0.20%    100.00% |           0      0.00%    100.00% (Unspecified)
system.caches.RequestType.ST.miss_latency_hist_seqr::total      1393030                       (Unspecified)
system.caches.RequestType.IFETCH.latency_hist_seqr::bucket_size          128                       (Unspecified)
system.caches.RequestType.IFETCH.latency_hist_seqr::max_bucket         1279                       (Unspecified)
system.caches.RequestType.IFETCH.latency_hist_seqr::samples    141353284                       (Unspecified)
system.caches.RequestType.IFETCH.latency_hist_seqr::mean     2.012407                       (Unspecified)
system.caches.RequestType.IFETCH.latency_hist_seqr::gmean     1.016721                       (Unspecified)
system.caches.RequestType.IFETCH.latency_hist_seqr::stdev    23.500896                       (Unspecified)
system.caches.RequestType.IFETCH.latency_hist_seqr |   141069551     99.80%     99.80% |       55100      0.04%     99.84% |       50707      0.04%     99.87% |       55814      0.04%     99.91% |       54569      0.04%     99.95% |       39143      0.03%     99.98% |       18812      0.01%     99.99% |        9521      0.01%    100.00% |          67      0.00%    100.00% |           0      0.00%    100.00% (Unspecified)
system.caches.RequestType.IFETCH.latency_hist_seqr::total    141353284                       (Unspecified)
system.caches.RequestType.IFETCH.hit_latency_hist_seqr::bucket_size            1                       (Unspecified)
system.caches.RequestType.IFETCH.hit_latency_hist_seqr::max_bucket            9                       (Unspecified)
system.caches.RequestType.IFETCH.hit_latency_hist_seqr::samples    140898994                       (Unspecified)
system.caches.RequestType.IFETCH.hit_latency_hist_seqr::mean            1                       (Unspecified)
system.caches.RequestType.IFETCH.hit_latency_hist_seqr::gmean            1                       (Unspecified)
system.caches.RequestType.IFETCH.hit_latency_hist_seqr |           0      0.00%      0.00% |   140898994    100.00%    100.00% |           0      0.00%    100.00% |           0      0.00%    100.00% |           0      0.00%    100.00% |           0      0.00%    100.00% |           0      0.00%    100.00% |           0      0.00%    100.00% |           0      0.00%    100.00% |           0      0.00%    100.00% (Unspecified)
system.caches.RequestType.IFETCH.hit_latency_hist_seqr::total    140898994                       (Unspecified)
system.caches.RequestType.IFETCH.miss_latency_hist_seqr::bucket_size          128                       (Unspecified)
system.caches.RequestType.IFETCH.miss_latency_hist_seqr::max_bucket         1279                       (Unspecified)
system.caches.RequestType.IFETCH.miss_latency_hist_seqr::samples       454290                       (Unspecified)
system.caches.RequestType.IFETCH.miss_latency_hist_seqr::mean   316.012452                       (Unspecified)
system.caches.RequestType.IFETCH.miss_latency_hist_seqr::gmean   174.119711                       (Unspecified)
system.caches.RequestType.IFETCH.miss_latency_hist_seqr::stdev   270.061258                       (Unspecified)
system.caches.RequestType.IFETCH.miss_latency_hist_seqr |      170557     37.54%     37.54% |       55100     12.13%     49.67% |       50707     11.16%     60.83% |       55814     12.29%     73.12% |       54569     12.01%     85.13% |       39143      8.62%     93.75% |       18812      4.14%     97.89% |        9521      2.10%     99.99% |          67      0.01%    100.00% |           0      0.00%    100.00% (Unspecified)
system.caches.RequestType.IFETCH.miss_latency_hist_seqr::total       454290                       (Unspecified)
system.caches.RequestType.RMW_Read.latency_hist_seqr::bucket_size          128                       (Unspecified)
system.caches.RequestType.RMW_Read.latency_hist_seqr::max_bucket         1279                       (Unspecified)
system.caches.RequestType.RMW_Read.latency_hist_seqr::samples        13297                       (Unspecified)
system.caches.RequestType.RMW_Read.latency_hist_seqr::mean    27.105738                       (Unspecified)
system.caches.RequestType.RMW_Read.latency_hist_seqr::gmean     2.354350                       (Unspecified)
system.caches.RequestType.RMW_Read.latency_hist_seqr::stdev    95.217873                       (Unspecified)
system.caches.RequestType.RMW_Read.latency_hist_seqr |       12407     93.31%     93.31% |         424      3.19%     96.50% |         209      1.57%     98.07% |         108      0.81%     98.88% |          73      0.55%     99.43% |          48      0.36%     99.79% |          21      0.16%     99.95% |           7      0.05%    100.00% |           0      0.00%    100.00% |           0      0.00%    100.00% (Unspecified)
system.caches.RequestType.RMW_Read.latency_hist_seqr::total        13297                       (Unspecified)
system.caches.RequestType.RMW_Read.hit_latency_hist_seqr::bucket_size            1                       (Unspecified)
system.caches.RequestType.RMW_Read.hit_latency_hist_seqr::max_bucket            9                       (Unspecified)
system.caches.RequestType.RMW_Read.hit_latency_hist_seqr::samples        10341                       (Unspecified)
system.caches.RequestType.RMW_Read.hit_latency_hist_seqr::mean            1                       (Unspecified)
system.caches.RequestType.RMW_Read.hit_latency_hist_seqr::gmean            1                       (Unspecified)
system.caches.RequestType.RMW_Read.hit_latency_hist_seqr |           0      0.00%      0.00% |       10341    100.00%    100.00% |           0      0.00%    100.00% |           0      0.00%    100.00% |           0      0.00%    100.00% |           0      0.00%    100.00% |           0      0.00%    100.00% |           0      0.00%    100.00% |           0      0.00%    100.00% |           0      0.00%    100.00% (Unspecified)
system.caches.RequestType.RMW_Read.hit_latency_hist_seqr::total        10341                       (Unspecified)
system.caches.RequestType.RMW_Read.miss_latency_hist_seqr::bucket_size          128                       (Unspecified)
system.caches.RequestType.RMW_Read.miss_latency_hist_seqr::max_bucket         1279                       (Unspecified)
system.caches.RequestType.RMW_Read.miss_latency_hist_seqr::samples         2956                       (Unspecified)
system.caches.RequestType.RMW_Read.miss_latency_hist_seqr::mean   118.431664                       (Unspecified)
system.caches.RequestType.RMW_Read.miss_latency_hist_seqr::gmean    47.075021                       (Unspecified)
system.caches.RequestType.RMW_Read.miss_latency_hist_seqr::stdev   173.396102                       (Unspecified)
system.caches.RequestType.RMW_Read.miss_latency_hist_seqr |        2066     69.89%     69.89% |         424     14.34%     84.24% |         209      7.07%     91.31% |         108      3.65%     94.96% |          73      2.47%     97.43% |          48      1.62%     99.05% |          21      0.71%     99.76% |           7      0.24%    100.00% |           0      0.00%    100.00% |           0      0.00%    100.00% (Unspecified)
system.caches.RequestType.RMW_Read.miss_latency_hist_seqr::total         2956                       (Unspecified)
system.caches.RequestType.Locked_RMW_Read.latency_hist_seqr::bucket_size           64                       (Unspecified)
system.caches.RequestType.Locked_RMW_Read.latency_hist_seqr::max_bucket          639                       (Unspecified)
system.caches.RequestType.Locked_RMW_Read.latency_hist_seqr::samples        50377                       (Unspecified)
system.caches.RequestType.Locked_RMW_Read.latency_hist_seqr::mean    41.454612                       (Unspecified)
system.caches.RequestType.Locked_RMW_Read.latency_hist_seqr::gmean     4.898242                       (Unspecified)
system.caches.RequestType.Locked_RMW_Read.latency_hist_seqr::stdev    82.340477                       (Unspecified)
system.caches.RequestType.Locked_RMW_Read.latency_hist_seqr |       42524     84.41%     84.41% |        1588      3.15%     87.56% |        2391      4.75%     92.31% |        1631      3.24%     95.55% |        1040      2.06%     97.61% |         839      1.67%     99.28% |         237      0.47%     99.75% |         123      0.24%     99.99% |           3      0.01%    100.00% |           1      0.00%    100.00% (Unspecified)
system.caches.RequestType.Locked_RMW_Read.latency_hist_seqr::total        50377                       (Unspecified)
system.caches.RequestType.Locked_RMW_Read.hit_latency_hist_seqr::bucket_size            1                       (Unspecified)
system.caches.RequestType.Locked_RMW_Read.hit_latency_hist_seqr::max_bucket            9                       (Unspecified)
system.caches.RequestType.Locked_RMW_Read.hit_latency_hist_seqr::samples        31911                       (Unspecified)
system.caches.RequestType.Locked_RMW_Read.hit_latency_hist_seqr::mean            1                       (Unspecified)
system.caches.RequestType.Locked_RMW_Read.hit_latency_hist_seqr::gmean            1                       (Unspecified)
system.caches.RequestType.Locked_RMW_Read.hit_latency_hist_seqr |           0      0.00%      0.00% |       31911    100.00%    100.00% |           0      0.00%    100.00% |           0      0.00%    100.00% |           0      0.00%    100.00% |           0      0.00%    100.00% |           0      0.00%    100.00% |           0      0.00%    100.00% |           0      0.00%    100.00% |           0      0.00%    100.00% (Unspecified)
system.caches.RequestType.Locked_RMW_Read.hit_latency_hist_seqr::total        31911                       (Unspecified)
system.caches.RequestType.Locked_RMW_Read.miss_latency_hist_seqr::bucket_size           64                       (Unspecified)
system.caches.RequestType.Locked_RMW_Read.miss_latency_hist_seqr::max_bucket          639                       (Unspecified)
system.caches.RequestType.Locked_RMW_Read.miss_latency_hist_seqr::samples        18466                       (Unspecified)
system.caches.RequestType.Locked_RMW_Read.miss_latency_hist_seqr::mean   111.364020                       (Unspecified)
system.caches.RequestType.Locked_RMW_Read.miss_latency_hist_seqr::gmean    76.294832                       (Unspecified)
system.caches.RequestType.Locked_RMW_Read.miss_latency_hist_seqr::stdev   103.832035                       (Unspecified)
system.caches.RequestType.Locked_RMW_Read.miss_latency_hist_seqr |       10613     57.47%     57.47% |        1588      8.60%     66.07% |        2391     12.95%     79.02% |        1631      8.83%     87.85% |        1040      5.63%     93.49% |         839      4.54%     98.03% |         237      1.28%     99.31% |         123      0.67%     99.98% |           3      0.02%     99.99% |           1      0.01%    100.00% (Unspecified)
system.caches.RequestType.Locked_RMW_Read.miss_latency_hist_seqr::total        18466                       (Unspecified)
system.caches.RequestType.Locked_RMW_Write.latency_hist_seqr::bucket_size            1                       (Unspecified)
system.caches.RequestType.Locked_RMW_Write.latency_hist_seqr::max_bucket            9                       (Unspecified)
system.caches.RequestType.Locked_RMW_Write.latency_hist_seqr::samples        50377                       (Unspecified)
system.caches.RequestType.Locked_RMW_Write.latency_hist_seqr::mean            1                       (Unspecified)
system.caches.RequestType.Locked_RMW_Write.latency_hist_seqr::gmean            1                       (Unspecified)
system.caches.RequestType.Locked_RMW_Write.latency_hist_seqr |           0      0.00%      0.00% |       50377    100.00%    100.00% |           0      0.00%    100.00% |           0      0.00%    100.00% |           0      0.00%    100.00% |           0      0.00%    100.00% |           0      0.00%    100.00% |           0      0.00%    100.00% |           0      0.00%    100.00% |           0      0.00%    100.00% (Unspecified)
system.caches.RequestType.Locked_RMW_Write.latency_hist_seqr::total        50377                       (Unspecified)
system.caches.RequestType.Locked_RMW_Write.hit_latency_hist_seqr::bucket_size            1                       (Unspecified)
system.caches.RequestType.Locked_RMW_Write.hit_latency_hist_seqr::max_bucket            9                       (Unspecified)
system.caches.RequestType.Locked_RMW_Write.hit_latency_hist_seqr::samples        50377                       (Unspecified)
system.caches.RequestType.Locked_RMW_Write.hit_latency_hist_seqr::mean            1                       (Unspecified)
system.caches.RequestType.Locked_RMW_Write.hit_latency_hist_seqr::gmean            1                       (Unspecified)
system.caches.RequestType.Locked_RMW_Write.hit_latency_hist_seqr |           0      0.00%      0.00% |       50377    100.00%    100.00% |           0      0.00%    100.00% |           0      0.00%    100.00% |           0      0.00%    100.00% |           0      0.00%    100.00% |           0      0.00%    100.00% |           0      0.00%    100.00% |           0      0.00%    100.00% |           0      0.00%    100.00% (Unspecified)
system.caches.RequestType.Locked_RMW_Write.hit_latency_hist_seqr::total        50377                       (Unspecified)
system.caches.controllers0.DCache.m_demand_hits            0                       # Number of cache demand hits (Unspecified)
system.caches.controllers0.DCache.m_demand_misses            0                       # Number of cache demand misses (Unspecified)
system.caches.controllers0.DCache.m_demand_accesses            0                       # Number of cache demand accesses (Unspecified)
system.caches.controllers0.ICache.m_demand_hits            0                       # Number of cache demand hits (Unspecified)
system.caches.controllers0.ICache.m_demand_misses            0                       # Number of cache demand misses (Unspecified)
system.caches.controllers0.ICache.m_demand_accesses            0                       # Number of cache demand accesses (Unspecified)
system.caches.controllers0.forwardFromL1.m_buf_msgs    61.604291                       # Average number of messages in buffer (Unspecified)
system.caches.controllers0.forwardFromL1.m_stall_time  5000.430651                       # Average number of cycles messages are stalled in this MB (Unspecified)
system.caches.controllers0.mandatoryQueue.m_buf_msgs     0.066013                       # Average number of messages in buffer (Unspecified)
system.caches.controllers0.mandatoryQueue.m_stall_time   999.999999                       # Average number of cycles messages are stalled in this MB (Unspecified)
system.caches.controllers0.power_state.pwrStateResidencyTicks::UNDEFINED 689427583000                       # Cumulative time (in ticks) in various power states (Tick)
system.caches.controllers0.requestToL1.m_buf_msgs     0.002798                       # Average number of messages in buffer (Unspecified)
system.caches.controllers0.requestToL1.m_stall_time   999.999997                       # Average number of cycles messages are stalled in this MB (Unspecified)
system.caches.controllers0.responseFromL1.m_buf_msgs     0.002298                       # Average number of messages in buffer (Unspecified)
system.caches.controllers0.responseFromL1.m_stall_time  4999.999050                       # Average number of cycles messages are stalled in this MB (Unspecified)
system.caches.controllers0.responseToL1.m_buf_msgs     0.000045                       # Average number of messages in buffer (Unspecified)
system.caches.controllers0.responseToL1.m_stall_time   999.976833                       # Average number of cycles messages are stalled in this MB (Unspecified)
system.caches.controllers0.xyzStatsObject.power_state.pwrStateResidencyTicks::UNDEFINED 689427583000                       # Cumulative time (in ticks) in various power states (Tick)
system.caches.controllers1.DCache.m_demand_hits            0                       # Number of cache demand hits (Unspecified)
system.caches.controllers1.DCache.m_demand_misses            0                       # Number of cache demand misses (Unspecified)
system.caches.controllers1.DCache.m_demand_accesses            0                       # Number of cache demand accesses (Unspecified)
system.caches.controllers1.ICache.m_demand_hits            0                       # Number of cache demand hits (Unspecified)
system.caches.controllers1.ICache.m_demand_misses            0                       # Number of cache demand misses (Unspecified)
system.caches.controllers1.ICache.m_demand_accesses            0                       # Number of cache demand accesses (Unspecified)
system.caches.controllers1.forwardFromL1.m_buf_msgs    69.200707                       # Average number of messages in buffer (Unspecified)
system.caches.controllers1.forwardFromL1.m_stall_time  4963.381723                       # Average number of cycles messages are stalled in this MB (Unspecified)
system.caches.controllers1.mandatoryQueue.m_buf_msgs     0.065028                       # Average number of messages in buffer (Unspecified)
system.caches.controllers1.mandatoryQueue.m_stall_time   992.593418                       # Average number of cycles messages are stalled in this MB (Unspecified)
system.caches.controllers1.power_state.pwrStateResidencyTicks::UNDEFINED 689427583000                       # Cumulative time (in ticks) in various power states (Tick)
system.caches.controllers1.requestToL1.m_buf_msgs     0.002746                       # Average number of messages in buffer (Unspecified)
system.caches.controllers1.requestToL1.m_stall_time   992.593416                       # Average number of cycles messages are stalled in this MB (Unspecified)
system.caches.controllers1.responseFromL1.m_buf_msgs     0.002251                       # Average number of messages in buffer (Unspecified)
system.caches.controllers1.responseFromL1.m_stall_time  4962.966886                       # Average number of cycles messages are stalled in this MB (Unspecified)
system.caches.controllers1.responseToL1.m_buf_msgs     0.000043                       # Average number of messages in buffer (Unspecified)
system.caches.controllers1.responseToL1.m_stall_time   992.539712                       # Average number of cycles messages are stalled in this MB (Unspecified)
system.caches.controllers1.xyzStatsObject.power_state.pwrStateResidencyTicks::UNDEFINED 689427583000                       # Cumulative time (in ticks) in various power states (Tick)
system.caches.controllers2.DCache.m_demand_hits            0                       # Number of cache demand hits (Unspecified)
system.caches.controllers2.DCache.m_demand_misses            0                       # Number of cache demand misses (Unspecified)
system.caches.controllers2.DCache.m_demand_accesses            0                       # Number of cache demand accesses (Unspecified)
system.caches.controllers2.ICache.m_demand_hits            0                       # Number of cache demand hits (Unspecified)
system.caches.controllers2.ICache.m_demand_misses            0                       # Number of cache demand misses (Unspecified)
system.caches.controllers2.ICache.m_demand_accesses            0                       # Number of cache demand accesses (Unspecified)
system.caches.controllers2.forwardFromL1.m_buf_msgs    72.433342                       # Average number of messages in buffer (Unspecified)
system.caches.controllers2.forwardFromL1.m_stall_time  4963.058426                       # Average number of cycles messages are stalled in this MB (Unspecified)
system.caches.controllers2.mandatoryQueue.m_buf_msgs     0.065486                       # Average number of messages in buffer (Unspecified)
system.caches.controllers2.mandatoryQueue.m_stall_time   992.512230                       # Average number of cycles messages are stalled in this MB (Unspecified)
system.caches.controllers2.power_state.pwrStateResidencyTicks::UNDEFINED 689427583000                       # Cumulative time (in ticks) in various power states (Tick)
system.caches.controllers2.requestToL1.m_buf_msgs     0.002942                       # Average number of messages in buffer (Unspecified)
system.caches.controllers2.requestToL1.m_stall_time   992.512229                       # Average number of cycles messages are stalled in this MB (Unspecified)
system.caches.controllers2.responseFromL1.m_buf_msgs     0.002384                       # Average number of messages in buffer (Unspecified)
system.caches.controllers2.responseFromL1.m_stall_time  4962.560948                       # Average number of cycles messages are stalled in this MB (Unspecified)
system.caches.controllers2.responseToL1.m_buf_msgs     0.000046                       # Average number of messages in buffer (Unspecified)
system.caches.controllers2.responseToL1.m_stall_time   992.500880                       # Average number of cycles messages are stalled in this MB (Unspecified)
system.caches.controllers2.xyzStatsObject.power_state.pwrStateResidencyTicks::UNDEFINED 689427583000                       # Cumulative time (in ticks) in various power states (Tick)
system.caches.controllers3.DCache.m_demand_hits            0                       # Number of cache demand hits (Unspecified)
system.caches.controllers3.DCache.m_demand_misses            0                       # Number of cache demand misses (Unspecified)
system.caches.controllers3.DCache.m_demand_accesses            0                       # Number of cache demand accesses (Unspecified)
system.caches.controllers3.ICache.m_demand_hits            0                       # Number of cache demand hits (Unspecified)
system.caches.controllers3.ICache.m_demand_misses            0                       # Number of cache demand misses (Unspecified)
system.caches.controllers3.ICache.m_demand_accesses            0                       # Number of cache demand accesses (Unspecified)
system.caches.controllers3.forwardFromL1.m_buf_msgs    63.985181                       # Average number of messages in buffer (Unspecified)
system.caches.controllers3.forwardFromL1.m_stall_time  4962.826930                       # Average number of cycles messages are stalled in this MB (Unspecified)
system.caches.controllers3.mandatoryQueue.m_buf_msgs     0.065663                       # Average number of messages in buffer (Unspecified)
system.caches.controllers3.mandatoryQueue.m_stall_time   992.463603                       # Average number of cycles messages are stalled in this MB (Unspecified)
system.caches.controllers3.power_state.pwrStateResidencyTicks::UNDEFINED 689427583000                       # Cumulative time (in ticks) in various power states (Tick)
system.caches.controllers3.requestToL1.m_buf_msgs     0.002794                       # Average number of messages in buffer (Unspecified)
system.caches.controllers3.requestToL1.m_stall_time   992.463602                       # Average number of cycles messages are stalled in this MB (Unspecified)
system.caches.controllers3.responseFromL1.m_buf_msgs     0.002296                       # Average number of messages in buffer (Unspecified)
system.caches.controllers3.responseFromL1.m_stall_time  4962.317812                       # Average number of cycles messages are stalled in this MB (Unspecified)
system.caches.controllers3.responseToL1.m_buf_msgs     0.000043                       # Average number of messages in buffer (Unspecified)
system.caches.controllers3.responseToL1.m_stall_time   992.456857                       # Average number of cycles messages are stalled in this MB (Unspecified)
system.caches.controllers3.xyzStatsObject.power_state.pwrStateResidencyTicks::UNDEFINED 689427583000                       # Cumulative time (in ticks) in various power states (Tick)
system.caches.controllers4.cacheMemory.m_demand_hits            0                       # Number of cache demand hits (Unspecified)
system.caches.controllers4.cacheMemory.m_demand_misses            0                       # Number of cache demand misses (Unspecified)
system.caches.controllers4.cacheMemory.m_demand_accesses            0                       # Number of cache demand accesses (Unspecified)
system.caches.controllers4.forwardFromDir.m_buf_msgs     0.001648                       # Average number of messages in buffer (Unspecified)
system.caches.controllers4.forwardFromDir.m_stall_time  5106.662081                       # Average number of cycles messages are stalled in this MB (Unspecified)
system.caches.controllers4.forwardFromDir.m_stall_count        11991                       # Number of times messages were stalled (Unspecified)
system.caches.controllers4.forwardToL0.m_buf_msgs     0.001019                       # Average number of messages in buffer (Unspecified)
system.caches.controllers4.forwardToL0.m_stall_time   999.986779                       # Average number of cycles messages are stalled in this MB (Unspecified)
system.caches.controllers4.power_state.pwrStateResidencyTicks::UNDEFINED 689427583000                       # Cumulative time (in ticks) in various power states (Tick)
system.caches.controllers4.requestFromL0.m_buf_msgs     0.242642                       # Average number of messages in buffer (Unspecified)
system.caches.controllers4.requestFromL0.m_stall_time 129039.179055                       # Average number of cycles messages are stalled in this MB (Unspecified)
system.caches.controllers4.requestFromL0.m_stall_count      1021740                       # Number of times messages were stalled (Unspecified)
system.caches.controllers4.requestToDir.m_buf_msgs     0.003178                       # Average number of messages in buffer (Unspecified)
system.caches.controllers4.requestToDir.m_stall_time   999.999990                       # Average number of cycles messages are stalled in this MB (Unspecified)
system.caches.controllers4.responseFromDirOrSibling.m_buf_msgs     0.001736                       # Average number of messages in buffer (Unspecified)
system.caches.controllers4.responseFromDirOrSibling.m_stall_time 12918.332486                       # Average number of cycles messages are stalled in this MB (Unspecified)
system.caches.controllers4.responseFromL0.m_buf_msgs     0.000045                       # Average number of messages in buffer (Unspecified)
system.caches.controllers4.responseFromL0.m_stall_time  5000.009530                       # Average number of cycles messages are stalled in this MB (Unspecified)
system.caches.controllers4.responseToDirOrSibling.m_buf_msgs     0.000027                       # Average number of messages in buffer (Unspecified)
system.caches.controllers4.responseToDirOrSibling.m_stall_time   992.593203                       # Average number of cycles messages are stalled in this MB (Unspecified)
system.caches.controllers4.responseToL0.m_buf_msgs     0.002298                       # Average number of messages in buffer (Unspecified)
system.caches.controllers4.responseToL0.m_stall_time   999.999816                       # Average number of cycles messages are stalled in this MB (Unspecified)
system.caches.controllers4.xyzStatsObject.power_state.pwrStateResidencyTicks::UNDEFINED 689427583000                       # Cumulative time (in ticks) in various power states (Tick)
system.caches.controllers5.cacheMemory.m_demand_hits            0                       # Number of cache demand hits (Unspecified)
system.caches.controllers5.cacheMemory.m_demand_misses            0                       # Number of cache demand misses (Unspecified)
system.caches.controllers5.cacheMemory.m_demand_accesses            0                       # Number of cache demand accesses (Unspecified)
system.caches.controllers5.forwardFromDir.m_buf_msgs     0.001617                       # Average number of messages in buffer (Unspecified)
system.caches.controllers5.forwardFromDir.m_stall_time  5090.216857                       # Average number of cycles messages are stalled in this MB (Unspecified)
system.caches.controllers5.forwardFromDir.m_stall_count        12187                       # Number of times messages were stalled (Unspecified)
system.caches.controllers5.forwardToL0.m_buf_msgs     0.000989                       # Average number of messages in buffer (Unspecified)
system.caches.controllers5.forwardToL0.m_stall_time   992.576817                       # Average number of cycles messages are stalled in this MB (Unspecified)
system.caches.controllers5.power_state.pwrStateResidencyTicks::UNDEFINED 689427583000                       # Cumulative time (in ticks) in various power states (Tick)
system.caches.controllers5.requestFromL0.m_buf_msgs     0.241830                       # Average number of messages in buffer (Unspecified)
system.caches.controllers5.requestFromL0.m_stall_time 128938.385192                       # Average number of cycles messages are stalled in this MB (Unspecified)
system.caches.controllers5.requestFromL0.m_stall_count       995695                       # Number of times messages were stalled (Unspecified)
system.caches.controllers5.requestToDir.m_buf_msgs     0.003108                       # Average number of messages in buffer (Unspecified)
system.caches.controllers5.requestToDir.m_stall_time   992.593409                       # Average number of cycles messages are stalled in this MB (Unspecified)
system.caches.controllers5.responseFromDirOrSibling.m_buf_msgs     0.001700                       # Average number of messages in buffer (Unspecified)
system.caches.controllers5.responseFromDirOrSibling.m_stall_time 12822.697853                       # Average number of cycles messages are stalled in this MB (Unspecified)
system.caches.controllers5.responseFromL0.m_buf_msgs     0.000043                       # Average number of messages in buffer (Unspecified)
system.caches.controllers5.responseFromL0.m_stall_time  4963.712869                       # Average number of cycles messages are stalled in this MB (Unspecified)
system.caches.controllers5.responseToDirOrSibling.m_buf_msgs     0.000027                       # Average number of messages in buffer (Unspecified)
system.caches.controllers5.responseToDirOrSibling.m_stall_time   992.507380                       # Average number of cycles messages are stalled in this MB (Unspecified)
system.caches.controllers5.responseToL0.m_buf_msgs     0.002251                       # Average number of messages in buffer (Unspecified)
system.caches.controllers5.responseToL0.m_stall_time   992.593383                       # Average number of cycles messages are stalled in this MB (Unspecified)
system.caches.controllers5.xyzStatsObject.power_state.pwrStateResidencyTicks::UNDEFINED 689427583000                       # Cumulative time (in ticks) in various power states (Tick)
system.caches.controllers6.cacheMemory.m_demand_hits            0                       # Number of cache demand hits (Unspecified)
system.caches.controllers6.cacheMemory.m_demand_misses            0                       # Number of cache demand misses (Unspecified)
system.caches.controllers6.cacheMemory.m_demand_accesses            0                       # Number of cache demand accesses (Unspecified)
system.caches.controllers6.forwardFromDir.m_buf_msgs     0.001655                       # Average number of messages in buffer (Unspecified)
system.caches.controllers6.forwardFromDir.m_stall_time  5049.929435                       # Average number of cycles messages are stalled in this MB (Unspecified)
system.caches.controllers6.forwardFromDir.m_stall_count        13682                       # Number of times messages were stalled (Unspecified)
system.caches.controllers6.forwardToL0.m_buf_msgs     0.001008                       # Average number of messages in buffer (Unspecified)
system.caches.controllers6.forwardToL0.m_stall_time   992.500888                       # Average number of cycles messages are stalled in this MB (Unspecified)
system.caches.controllers6.power_state.pwrStateResidencyTicks::UNDEFINED 689427583000                       # Cumulative time (in ticks) in various power states (Tick)
system.caches.controllers6.requestFromL0.m_buf_msgs     0.242507                       # Average number of messages in buffer (Unspecified)
system.caches.controllers6.requestFromL0.m_stall_time 129103.900898                       # Average number of cycles messages are stalled in this MB (Unspecified)
system.caches.controllers6.requestFromL0.m_stall_count      1004662                       # Number of times messages were stalled (Unspecified)
system.caches.controllers6.requestToDir.m_buf_msgs     0.003136                       # Average number of messages in buffer (Unspecified)
system.caches.controllers6.requestToDir.m_stall_time   992.512222                       # Average number of cycles messages are stalled in this MB (Unspecified)
system.caches.controllers6.responseFromDirOrSibling.m_buf_msgs     0.001715                       # Average number of messages in buffer (Unspecified)
system.caches.controllers6.responseFromDirOrSibling.m_stall_time 12827.173684                       # Average number of cycles messages are stalled in this MB (Unspecified)
system.caches.controllers6.responseFromL0.m_buf_msgs     0.000046                       # Average number of messages in buffer (Unspecified)
system.caches.controllers6.responseFromL0.m_stall_time  4962.710533                       # Average number of cycles messages are stalled in this MB (Unspecified)
system.caches.controllers6.responseToDirOrSibling.m_buf_msgs     0.000033                       # Average number of messages in buffer (Unspecified)
system.caches.controllers6.responseToDirOrSibling.m_stall_time   992.498887                       # Average number of cycles messages are stalled in this MB (Unspecified)
system.caches.controllers6.responseToL0.m_buf_msgs     0.002384                       # Average number of messages in buffer (Unspecified)
system.caches.controllers6.responseToL0.m_stall_time   992.512195                       # Average number of cycles messages are stalled in this MB (Unspecified)
system.caches.controllers6.xyzStatsObject.power_state.pwrStateResidencyTicks::UNDEFINED 689427583000                       # Cumulative time (in ticks) in various power states (Tick)
system.caches.controllers7.cacheMemory.m_demand_hits            0                       # Number of cache demand hits (Unspecified)
system.caches.controllers7.cacheMemory.m_demand_misses            0                       # Number of cache demand misses (Unspecified)
system.caches.controllers7.cacheMemory.m_demand_accesses            0                       # Number of cache demand accesses (Unspecified)
system.caches.controllers7.forwardFromDir.m_buf_msgs     0.001645                       # Average number of messages in buffer (Unspecified)
system.caches.controllers7.forwardFromDir.m_stall_time  5067.939616                       # Average number of cycles messages are stalled in this MB (Unspecified)
system.caches.controllers7.forwardFromDir.m_stall_count        12989                       # Number of times messages were stalled (Unspecified)
system.caches.controllers7.forwardToL0.m_buf_msgs     0.001005                       # Average number of messages in buffer (Unspecified)
system.caches.controllers7.forwardToL0.m_stall_time   992.456864                       # Average number of cycles messages are stalled in this MB (Unspecified)
system.caches.controllers7.power_state.pwrStateResidencyTicks::UNDEFINED 689427583000                       # Cumulative time (in ticks) in various power states (Tick)
system.caches.controllers7.requestFromL0.m_buf_msgs     0.241954                       # Average number of messages in buffer (Unspecified)
system.caches.controllers7.requestFromL0.m_stall_time 129097.829477                       # Average number of cycles messages are stalled in this MB (Unspecified)
system.caches.controllers7.requestFromL0.m_stall_count      1004013                       # Number of times messages were stalled (Unspecified)
system.caches.controllers7.requestToDir.m_buf_msgs     0.003136                       # Average number of messages in buffer (Unspecified)
system.caches.controllers7.requestToDir.m_stall_time   992.463594                       # Average number of cycles messages are stalled in this MB (Unspecified)
system.caches.controllers7.responseFromDirOrSibling.m_buf_msgs     0.001714                       # Average number of messages in buffer (Unspecified)
system.caches.controllers7.responseFromDirOrSibling.m_stall_time 12820.851020                       # Average number of cycles messages are stalled in this MB (Unspecified)
system.caches.controllers7.responseFromL0.m_buf_msgs     0.000043                       # Average number of messages in buffer (Unspecified)
system.caches.controllers7.responseFromL0.m_stall_time  4962.341198                       # Average number of cycles messages are stalled in this MB (Unspecified)
system.caches.controllers7.responseToDirOrSibling.m_buf_msgs     0.000031                       # Average number of messages in buffer (Unspecified)
system.caches.controllers7.responseToDirOrSibling.m_stall_time   992.455515                       # Average number of cycles messages are stalled in this MB (Unspecified)
system.caches.controllers7.responseToL0.m_buf_msgs     0.002296                       # Average number of messages in buffer (Unspecified)
system.caches.controllers7.responseToL0.m_stall_time   992.463568                       # Average number of cycles messages are stalled in this MB (Unspecified)
system.caches.controllers7.xyzStatsObject.power_state.pwrStateResidencyTicks::UNDEFINED 689427583000                       # Cumulative time (in ticks) in various power states (Tick)
system.caches.controllers8.cacheMemory.m_demand_hits            0                       # Number of cache demand hits (Unspecified)
system.caches.controllers8.cacheMemory.m_demand_misses            0                       # Number of cache demand misses (Unspecified)
system.caches.controllers8.cacheMemory.m_demand_accesses            0                       # Number of cache demand accesses (Unspecified)
system.caches.controllers8.forwardToCache.m_buf_msgs     0.006833                       # Average number of messages in buffer (Unspecified)
system.caches.controllers8.forwardToCache.m_stall_time   999.993914                       # Average number of cycles messages are stalled in this MB (Unspecified)
system.caches.controllers8.power_state.pwrStateResidencyTicks::UNDEFINED 689427583000                       # Cumulative time (in ticks) in various power states (Tick)
system.caches.controllers8.requestFromCache.m_not_avail_count      2619068                       # Number of times this buffer did not have N slots available (Unspecified)
system.caches.controllers8.requestFromCache.m_buf_msgs     0.012557                       # Average number of messages in buffer (Unspecified)
system.caches.controllers8.requestFromCache.m_stall_time 255740.125183                       # Average number of cycles messages are stalled in this MB (Unspecified)
system.caches.controllers8.requestFromCache.m_occupancy     0.012557                       # Average occupancy of buffer capacity (Unspecified)
system.caches.controllers8.requestToMemory.m_buf_msgs     0.007115                       # Average number of messages in buffer (Unspecified)
system.caches.controllers8.requestToMemory.m_stall_time   999.999983                       # Average number of cycles messages are stalled in this MB (Unspecified)
system.caches.controllers8.responseFromMemory.m_buf_msgs     0.007115                       # Average number of messages in buffer (Unspecified)
system.caches.controllers8.responseFromMemory.m_stall_time   999.999836                       # Average number of cycles messages are stalled in this MB (Unspecified)
system.caches.controllers8.responseToCache.m_buf_msgs     0.060717                       # Average number of messages in buffer (Unspecified)
system.caches.controllers8.responseToCache.m_stall_time  8999.998407                       # Average number of cycles messages are stalled in this MB (Unspecified)
system.caches.controllers8.xyzCacheMemory.m_demand_hits            0                       # Number of cache demand hits (Unspecified)
system.caches.controllers8.xyzCacheMemory.m_demand_misses            0                       # Number of cache demand misses (Unspecified)
system.caches.controllers8.xyzCacheMemory.m_demand_accesses            0                       # Number of cache demand accesses (Unspecified)
system.caches.controllers8.xyzStatsObject.power_state.pwrStateResidencyTicks::UNDEFINED 689427583000                       # Cumulative time (in ticks) in various power states (Tick)
system.caches.network.msg_count.Control      41047936                       (Unspecified)
system.caches.network.msg_byte.Control      328383488                       (Unspecified)
system.caches.network.msg_count.Data         23374838                       (Unspecified)
system.caches.network.msg_byte.Data        1682988336                       (Unspecified)
system.caches.network.msg_count.Response_Data      4472070                       (Unspecified)
system.caches.network.msg_byte.Response_Data    321989040                       (Unspecified)
system.caches.network.int_link_buffers102.m_buf_msgs     0.001008                       # Average number of messages in buffer (Unspecified)
system.caches.network.int_link_buffers102.m_stall_time  2978.034082                       # Average number of cycles messages are stalled in this MB (Unspecified)
system.caches.network.int_link_buffers103.m_buf_msgs     0.002384                       # Average number of messages in buffer (Unspecified)
system.caches.network.int_link_buffers103.m_stall_time  2977.536578                       # Average number of cycles messages are stalled in this MB (Unspecified)
system.caches.network.int_link_buffers107.m_buf_msgs     0.000004                       # Average number of messages in buffer (Unspecified)
[...]
system.caches.controllers2.xyzStatsObjectlatency::underflows            0      0.00%      0.00% # Mem access latency (Unspecified)
system.caches.controllers2.xyzStatsObjectlatency::0-49999      1643658    100.00%    100.00% # Mem access latency (Unspecified)
system.caches.controllers2.xyzStatsObjectlatency::50000-99999            0      0.00%    100.00% # Mem access latency (Unspecified)
system.caches.controllers2.xyzStatsObjectlatency::100000            0      0.00%    100.00% # Mem access latency (Unspecified)
system.caches.controllers2.xyzStatsObjectlatency::overflows            0      0.00%    100.00% # Mem access latency (Unspecified)
system.caches.controllers2.xyzStatsObjectlatency::min_value           10                       # Mem access latency (Unspecified)
system.caches.controllers2.xyzStatsObjectlatency::max_value         1141                       # Mem access latency (Unspecified)
system.caches.controllers2.xyzStatsObjectlatency::total      1643658                       # Mem access latency (Unspecified)
system.caches.controllers3.xyzStatsObject.total_put            0                       # Total number of put (PutM + PutS) (Unspecified)
system.caches.controllers3.xyzStatsObject.total_put_as_wt            0                       # Total number of put as write through (Unspecified)
system.caches.controllers3.xyzStatsObject.total_putm            0                       # Total number of PutM (Unspecified)
system.caches.controllers3.xyzStatsObject.total_putm_as_wt            0                       # Total number of PutM as write through (Unspecified)
system.caches.controllers3.xyzStatsObject.total_puts            0                       # Total number of PutS (Unspecified)
system.caches.controllers3.xyzStatsObject.total_puts_as_wt            0                       # Total number of PutS as write through (Unspecified)
system.caches.controllers3.xyzStatsObject.total_repl            0                       # Total Replacement (Unspecified)
system.caches.controllers3.xyzStatsObject.total_repl_llc            0                       # Total Replacement of LLC line (Unspecified)
system.caches.controllers3.xyzStatsObject.total_repl_owned            0                       # Total Replacement of owned line (Unspecified)
system.caches.controllers3.xyzStatsObject.total_repl_shared            0                       # Total Replacement of shared line (Unspecified)
system.caches.controllers3.xyzStatsObject.wt_putRatio          nan                       # WT / Put (Unspecified)
system.caches.controllers3.xyzStatsObject.wt_putmRatio          nan                       # PutM WT / PutM (Unspecified)
system.caches.controllers3.xyzStatsObject.wt_putsRatio          nan                       # PutS WT / PutS (Unspecified)
system.caches.controllers3.xyzStatsObjectlatency::samples      1582672                       # Mem access latency (Unspecified)
system.caches.controllers3.xyzStatsObjectlatency::mean   369.920831                       # Mem access latency (Unspecified)
system.caches.controllers3.xyzStatsObjectlatency::stdev   338.623461                       # Mem access latency (Unspecified)
system.caches.controllers3.xyzStatsObjectlatency::underflows            0      0.00%      0.00% # Mem access latency (Unspecified)
system.caches.controllers3.xyzStatsObjectlatency::0-49999      1582672    100.00%    100.00% # Mem access latency (Unspecified)
system.caches.controllers3.xyzStatsObjectlatency::50000-99999            0      0.00%    100.00% # Mem access latency (Unspecified)
system.caches.controllers3.xyzStatsObjectlatency::100000            0      0.00%    100.00% # Mem access latency (Unspecified)
system.caches.controllers3.xyzStatsObjectlatency::overflows            0      0.00%    100.00% # Mem access latency (Unspecified)
system.caches.controllers3.xyzStatsObjectlatency::min_value           10                       # Mem access latency (Unspecified)
system.caches.controllers3.xyzStatsObjectlatency::max_value         1131                       # Mem access latency (Unspecified)
system.caches.controllers3.xyzStatsObjectlatency::total      1582672                       # Mem access latency (Unspecified)
system.caches.controllers4.xyzStatsObject.total_put            0                       # Total number of put (PutM + PutS) (Unspecified)
system.caches.controllers4.xyzStatsObject.total_put_as_wt            0                       # Total number of put as write through (Unspecified)
system.caches.controllers4.xyzStatsObject.total_putm            0                       # Total number of PutM (Unspecified)
system.caches.controllers4.xyzStatsObject.total_putm_as_wt            0                       # Total number of PutM as write through (Unspecified)
system.caches.controllers4.xyzStatsObject.total_puts            0                       # Total number of PutS (Unspecified)
system.caches.controllers4.xyzStatsObject.total_puts_as_wt            0                       # Total number of PutS as write through (Unspecified)
system.caches.controllers4.xyzStatsObject.total_repl            0                       # Total Replacement (Unspecified)
system.caches.controllers4.xyzStatsObject.total_repl_llc            0                       # Total Replacement of LLC line (Unspecified)
system.caches.controllers4.xyzStatsObject.total_repl_owned            0                       # Total Replacement of owned line (Unspecified)
system.caches.controllers4.xyzStatsObject.total_repl_shared            0                       # Total Replacement of shared line (Unspecified)
system.caches.controllers4.xyzStatsObject.wt_putRatio          nan                       # WT / Put (Unspecified)
system.caches.controllers4.xyzStatsObject.wt_putmRatio          nan                       # PutM WT / PutM (Unspecified)
system.caches.controllers4.xyzStatsObject.wt_putsRatio          nan                       # PutS WT / PutS (Unspecified)
system.caches.controllers4.xyzStatsObjectlatency::samples      1191776                       # Mem access latency (Unspecified)
system.caches.controllers4.xyzStatsObjectlatency::mean   340.695309                       # Mem access latency (Unspecified)
system.caches.controllers4.xyzStatsObjectlatency::stdev   213.319535                       # Mem access latency (Unspecified)
system.caches.controllers4.xyzStatsObjectlatency::underflows            0      0.00%      0.00% # Mem access latency (Unspecified)
system.caches.controllers4.xyzStatsObjectlatency::0-49999      1191776    100.00%    100.00% # Mem access latency (Unspecified)
system.caches.controllers4.xyzStatsObjectlatency::50000-99999            0      0.00%    100.00% # Mem access latency (Unspecified)
system.caches.controllers4.xyzStatsObjectlatency::100000            0      0.00%    100.00% # Mem access latency (Unspecified)
system.caches.controllers4.xyzStatsObjectlatency::overflows            0      0.00%    100.00% # Mem access latency (Unspecified)
system.caches.controllers4.xyzStatsObjectlatency::min_value           15                       # Mem access latency (Unspecified)
system.caches.controllers4.xyzStatsObjectlatency::max_value          732                       # Mem access latency (Unspecified)
system.caches.controllers4.xyzStatsObjectlatency::total      1191776                       # Mem access latency (Unspecified)
system.caches.controllers5.xyzStatsObject.total_put            0                       # Total number of put (PutM + PutS) (Unspecified)
system.caches.controllers5.xyzStatsObject.total_put_as_wt            0                       # Total number of put as write through (Unspecified)
system.caches.controllers5.xyzStatsObject.total_putm            0                       # Total number of PutM (Unspecified)
system.caches.controllers5.xyzStatsObject.total_putm_as_wt            0                       # Total number of PutM as write through (Unspecified)
system.caches.controllers5.xyzStatsObject.total_puts            0                       # Total number of PutS (Unspecified)
system.caches.controllers5.xyzStatsObject.total_puts_as_wt            0                       # Total number of PutS as write through (Unspecified)
system.caches.controllers5.xyzStatsObject.total_repl            0                       # Total Replacement (Unspecified)
system.caches.controllers5.xyzStatsObject.total_repl_llc            0                       # Total Replacement of LLC line (Unspecified)
system.caches.controllers5.xyzStatsObject.total_repl_owned            0                       # Total Replacement of owned line (Unspecified)
system.caches.controllers5.xyzStatsObject.total_repl_shared            0                       # Total Replacement of shared line (Unspecified)
system.caches.controllers5.xyzStatsObject.wt_putRatio          nan                       # WT / Put (Unspecified)
system.caches.controllers5.xyzStatsObject.wt_putmRatio          nan                       # PutM WT / PutM (Unspecified)
system.caches.controllers5.xyzStatsObject.wt_putsRatio          nan                       # PutS WT / PutS (Unspecified)
system.caches.controllers5.xyzStatsObjectlatency::samples      1166920                       # Mem access latency (Unspecified)
system.caches.controllers5.xyzStatsObjectlatency::mean   343.870354                       # Mem access latency (Unspecified)
system.caches.controllers5.xyzStatsObjectlatency::stdev   213.610941                       # Mem access latency (Unspecified)
system.caches.controllers5.xyzStatsObjectlatency::underflows            0      0.00%      0.00% # Mem access latency (Unspecified)
system.caches.controllers5.xyzStatsObjectlatency::0-49999      1166920    100.00%    100.00% # Mem access latency (Unspecified)
system.caches.controllers5.xyzStatsObjectlatency::50000-99999            0      0.00%    100.00% # Mem access latency (Unspecified)
system.caches.controllers5.xyzStatsObjectlatency::100000            0      0.00%    100.00% # Mem access latency (Unspecified)
system.caches.controllers5.xyzStatsObjectlatency::overflows            0      0.00%    100.00% # Mem access latency (Unspecified)
system.caches.controllers5.xyzStatsObjectlatency::min_value           15                       # Mem access latency (Unspecified)
system.caches.controllers5.xyzStatsObjectlatency::max_value          732                       # Mem access latency (Unspecified)
system.caches.controllers5.xyzStatsObjectlatency::total      1166920                       # Mem access latency (Unspecified)
system.caches.controllers6.xyzStatsObject.total_put            0                       # Total number of put (PutM + PutS) (Unspecified)
system.caches.controllers6.xyzStatsObject.total_put_as_wt            0                       # Total number of put as write through (Unspecified)
system.caches.controllers6.xyzStatsObject.total_putm            0                       # Total number of PutM (Unspecified)
system.caches.controllers6.xyzStatsObject.total_putm_as_wt            0                       # Total number of PutM as write through (Unspecified)
system.caches.controllers6.xyzStatsObject.total_puts            0                       # Total number of PutS (Unspecified)
system.caches.controllers6.xyzStatsObject.total_puts_as_wt            0                       # Total number of PutS as write through (Unspecified)
system.caches.controllers6.xyzStatsObject.total_repl            0                       # Total Replacement (Unspecified)
system.caches.controllers6.xyzStatsObject.total_repl_llc            0                       # Total Replacement of LLC line (Unspecified)
system.caches.controllers6.xyzStatsObject.total_repl_owned            0                       # Total Replacement of owned line (Unspecified)
system.caches.controllers6.xyzStatsObject.total_repl_shared            0                       # Total Replacement of shared line (Unspecified)
system.caches.controllers6.xyzStatsObject.wt_putRatio          nan                       # WT / Put (Unspecified)
system.caches.controllers6.xyzStatsObject.wt_putmRatio          nan                       # PutM WT / PutM (Unspecified)
system.caches.controllers6.xyzStatsObject.wt_putsRatio          nan                       # PutS WT / PutS (Unspecified)
system.caches.controllers6.xyzStatsObjectlatency::samples      1178660                       # Mem access latency (Unspecified)
system.caches.controllers6.xyzStatsObjectlatency::mean   341.878236                       # Mem access latency (Unspecified)
system.caches.controllers6.xyzStatsObjectlatency::stdev   213.119633                       # Mem access latency (Unspecified)
system.caches.controllers6.xyzStatsObjectlatency::underflows            0      0.00%      0.00% # Mem access latency (Unspecified)
system.caches.controllers6.xyzStatsObjectlatency::0-49999      1178660    100.00%    100.00% # Mem access latency (Unspecified)
system.caches.controllers6.xyzStatsObjectlatency::50000-99999            0      0.00%    100.00% # Mem access latency (Unspecified)
system.caches.controllers6.xyzStatsObjectlatency::100000            0      0.00%    100.00% # Mem access latency (Unspecified)
system.caches.controllers6.xyzStatsObjectlatency::overflows            0      0.00%    100.00% # Mem access latency (Unspecified)
system.caches.controllers6.xyzStatsObjectlatency::min_value           15                       # Mem access latency (Unspecified)
system.caches.controllers6.xyzStatsObjectlatency::max_value          773                       # Mem access latency (Unspecified)
system.caches.controllers6.xyzStatsObjectlatency::total      1178660                       # Mem access latency (Unspecified)
system.caches.controllers7.xyzStatsObject.total_put            0                       # Total number of put (PutM + PutS) (Unspecified)
system.caches.controllers7.xyzStatsObject.total_put_as_wt            0                       # Total number of put as write through (Unspecified)
system.caches.controllers7.xyzStatsObject.total_putm            0                       # Total number of PutM (Unspecified)
system.caches.controllers7.xyzStatsObject.total_putm_as_wt            0                       # Total number of PutM as write through (Unspecified)
system.caches.controllers7.xyzStatsObject.total_puts            0                       # Total number of PutS (Unspecified)
system.caches.controllers7.xyzStatsObject.total_puts_as_wt            0                       # Total number of PutS as write through (Unspecified)
system.caches.controllers7.xyzStatsObject.total_repl            0                       # Total Replacement (Unspecified)
system.caches.controllers7.xyzStatsObject.total_repl_llc            0                       # Total Replacement of LLC line (Unspecified)
system.caches.controllers7.xyzStatsObject.total_repl_owned            0                       # Total Replacement of owned line (Unspecified)
system.caches.controllers7.xyzStatsObject.total_repl_shared            0                       # Total Replacement of shared line (Unspecified)
system.caches.controllers7.xyzStatsObject.wt_putRatio          nan                       # WT / Put (Unspecified)
system.caches.controllers7.xyzStatsObject.wt_putmRatio          nan                       # PutM WT / PutM (Unspecified)
system.caches.controllers7.xyzStatsObject.wt_putsRatio          nan                       # PutS WT / PutS (Unspecified)
system.caches.controllers7.xyzStatsObjectlatency::samples      1177918                       # Mem access latency (Unspecified)
system.caches.controllers7.xyzStatsObjectlatency::mean   342.447681                       # Mem access latency (Unspecified)
system.caches.controllers7.xyzStatsObjectlatency::stdev   213.739249                       # Mem access latency (Unspecified)
system.caches.controllers7.xyzStatsObjectlatency::underflows            0      0.00%      0.00% # Mem access latency (Unspecified)
system.caches.controllers7.xyzStatsObjectlatency::0-49999      1177918    100.00%    100.00% # Mem access latency (Unspecified)
system.caches.controllers7.xyzStatsObjectlatency::50000-99999            0      0.00%    100.00% # Mem access latency (Unspecified)
system.caches.controllers7.xyzStatsObjectlatency::100000            0      0.00%    100.00% # Mem access latency (Unspecified)
system.caches.controllers7.xyzStatsObjectlatency::overflows            0      0.00%    100.00% # Mem access latency (Unspecified)
system.caches.controllers7.xyzStatsObjectlatency::min_value           15                       # Mem access latency (Unspecified)
system.caches.controllers7.xyzStatsObjectlatency::max_value          732                       # Mem access latency (Unspecified)
system.caches.controllers7.xyzStatsObjectlatency::total      1177918                       # Mem access latency (Unspecified)
system.caches.controllers8.xyzStatsObject.total_put      4148668                       # Total number of put (PutM + PutS) (Unspecified)
system.caches.controllers8.xyzStatsObject.total_put_as_wt      2490401                       # Total number of put as write through (Unspecified)
system.caches.controllers8.xyzStatsObject.total_putm      1309534                       # Total number of PutM (Unspecified)
system.caches.controllers8.xyzStatsObject.total_putm_as_wt       909998                       # Total number of PutM as write through (Unspecified)
system.caches.controllers8.xyzStatsObject.total_puts      2839134                       # Total number of PutS (Unspecified)
system.caches.controllers8.xyzStatsObject.total_puts_as_wt      1580403                       # Total number of PutS as write through (Unspecified)
system.caches.controllers8.xyzStatsObject.total_repl            0                       # Total Replacement (Unspecified)
system.caches.controllers8.xyzStatsObject.total_repl_llc            0                       # Total Replacement of LLC line (Unspecified)
system.caches.controllers8.xyzStatsObject.total_repl_owned            0                       # Total Replacement of owned line (Unspecified)
system.caches.controllers8.xyzStatsObject.total_repl_shared            0                       # Total Replacement of shared line (Unspecified)
system.caches.controllers8.xyzStatsObject.wt_putRatio     0.600289                       # WT / Put (Unspecified)
system.caches.controllers8.xyzStatsObject.wt_putmRatio     0.694902                       # PutM WT / PutM (Unspecified)
system.caches.controllers8.xyzStatsObject.wt_putsRatio     0.556650                       # PutS WT / PutS (Unspecified)
system.caches.controllers8.xyzStatsObjectlatency::samples            0                       # Mem access latency (Unspecified)
system.caches.controllers8.xyzStatsObjectlatency::mean          nan                       # Mem access latency (Unspecified)
system.caches.controllers8.xyzStatsObjectlatency::stdev          nan                       # Mem access latency (Unspecified)
system.caches.controllers8.xyzStatsObjectlatency::underflows            0                       # Mem access latency (Unspecified)
system.caches.controllers8.xyzStatsObjectlatency::0-49999            0                       # Mem access latency (Unspecified)
system.caches.controllers8.xyzStatsObjectlatency::50000-99999            0                       # Mem access latency (Unspecified)
system.caches.controllers8.xyzStatsObjectlatency::100000            0                       # Mem access latency (Unspecified)
system.caches.controllers8.xyzStatsObjectlatency::overflows            0                       # Mem access latency (Unspecified)
system.caches.controllers8.xyzStatsObjectlatency::min_value            0                       # Mem access latency (Unspecified)
system.caches.controllers8.xyzStatsObjectlatency::max_value            0                       # Mem access latency (Unspecified)
system.caches.controllers8.xyzStatsObjectlatency::total            0                       # Mem access latency (Unspecified)

---------- End Simulation Statistics   ----------
