
---------- Begin Simulation Statistics ----------
simSeconds                                   0.856798                       # Number of seconds simulated (Second)
simTicks                                 856798207000                       # Number of ticks simulated (Tick)
finalTick                                856798207000                       # Number of ticks from beginning of simulation (restored from checkpoints and never reset) (Tick)
simFreq                                  1000000000000                       # The number of ticks per simulated second ((Tick/Second))
hostSeconds                                    185.05                       # Real time elapsed on the host (Second)
hostTickRate                               4630018703                       # The number of ticks simulated per host second (ticks/s) ((Tick/Second))
hostMemory                                    4952580                       # Number of bytes of host memory used (Byte)
simInsts                                     98166920                       # Number of instructions simulated (Count)
simOps                                      163594931                       # Number of ops (including micro ops) simulated (Count)
hostInstRate                                   530478                       # Simulator instruction rate (inst/s) ((Count/Second))
hostOpRate                                     884040                       # Simulator op (including micro ops) rate (op/s) ((Count/Second))
system.caches.m_outstandReqHistSeqr::bucket_size            1                       (Unspecified)
system.caches.m_outstandReqHistSeqr::max_bucket            9                       (Unspecified)
system.caches.m_outstandReqHistSeqr::samples    180759884                       (Unspecified)
system.caches.m_outstandReqHistSeqr::mean            1                       (Unspecified)
system.caches.m_outstandReqHistSeqr::gmean            1                       (Unspecified)
system.caches.m_outstandReqHistSeqr      |           0      0.00%      0.00% |   180759884    100.00%    100.00% |           0      0.00%    100.00% |           0      0.00%    100.00% |           0      0.00%    100.00% |           0      0.00%    100.00% |           0      0.00%    100.00% |           0      0.00%    100.00% |           0      0.00%    100.00% |           0      0.00%    100.00% (Unspecified)
system.caches.m_outstandReqHistSeqr::total    180759884                       (Unspecified)
system.caches.m_latencyHistSeqr::bucket_size          128                       (Unspecified)
system.caches.m_latencyHistSeqr::max_bucket         1279                       (Unspecified)
system.caches.m_latencyHistSeqr::samples    180759884                       (Unspecified)
system.caches.m_latencyHistSeqr::mean       17.626963                       (Unspecified)
system.caches.m_latencyHistSeqr::gmean       1.204740                       (Unspecified)
system.caches.m_latencyHistSeqr::stdev     110.207368                       (Unspecified)
system.caches.m_latencyHistSeqr          |   176230379     97.49%     97.49% |      384885      0.21%     97.71% |      483647      0.27%     97.97% |      458489      0.25%     98.23% |      549926      0.30%     98.53% |      898700      0.50%     99.03% |      995415      0.55%     99.58% |      739058      0.41%     99.99% |       19385      0.01%    100.00% |           0      0.00%    100.00% (Unspecified)
system.caches.m_latencyHistSeqr::total      180759884                       (Unspecified)
system.caches.m_hitLatencyHistSeqr::bucket_size            1                       (Unspecified)
system.caches.m_hitLatencyHistSeqr::max_bucket            9                       (Unspecified)
system.caches.m_hitLatencyHistSeqr::samples    174398675                       (Unspecified)
system.caches.m_hitLatencyHistSeqr::mean            1                       (Unspecified)
system.caches.m_hitLatencyHistSeqr::gmean            1                       (Unspecified)
system.caches.m_hitLatencyHistSeqr       |           0      0.00%      0.00% |   174398675    100.00%    100.00% |           0      0.00%    100.00% |           0      0.00%    100.00% |           0      0.00%    100.00% |           0      0.00%    100.00% |           0      0.00%    100.00% |           0      0.00%    100.00% |           0      0.00%    100.00% |           0      0.00%    100.00% (Unspecified)
system.caches.m_hitLatencyHistSeqr::total    174398675                       (Unspecified)
system.caches.m_missLatencyHistSeqr::bucket_size          128                       (Unspecified)
system.caches.m_missLatencyHistSeqr::max_bucket         1279                       (Unspecified)
system.caches.m_missLatencyHistSeqr::samples      6361209                       (Unspecified)
system.caches.m_missLatencyHistSeqr::mean   473.471182                       (Unspecified)
system.caches.m_missLatencyHistSeqr::gmean   198.913179                       (Unspecified)
system.caches.m_missLatencyHistSeqr::stdev   360.218695                       (Unspecified)
system.caches.m_missLatencyHistSeqr      |     1831704     28.79%     28.79% |      384885      6.05%     34.85% |      483647      7.60%     42.45% |      458489      7.21%     49.66% |      549926      8.64%     58.30% |      898700     14.13%     72.43% |      995415     15.65%     88.08% |      739058     11.62%     99.70% |       19385      0.30%    100.00% |           0      0.00%    100.00% (Unspecified)
system.caches.m_missLatencyHistSeqr::total      6361209                       (Unspecified)
system.caches.L0Cache_Controller.Load    |     8107175     25.13%     25.13% |     8005750     24.81%     49.94% |     8062196     24.99%     74.93% |     8090606     25.07%    100.00% (Unspecified)
system.caches.L0Cache_Controller.Load::total     32265727                       (Unspecified)
system.caches.L0Cache_Controller.Ifetch  |    35594180     25.18%     25.18% |    35044106     24.79%     49.97% |    35314783     24.98%     74.96% |    35399427     25.04%    100.00% (Unspecified)
system.caches.L0Cache_Controller.Ifetch::total    141352496                       (Unspecified)
system.caches.L0Cache_Controller.Store   |     1811116     25.36%     25.36% |     1769875     24.78%     50.14% |     1780689     24.93%     75.08% |     1779981     24.92%    100.00% (Unspecified)
system.caches.L0Cache_Controller.Store::total      7141661                       (Unspecified)
system.caches.L0Cache_Controller.Replacement |     1220856     24.80%     24.80% |     1198925     24.35%     49.15% |     1281009     26.02%     75.17% |     1222472     24.83%    100.00% (Unspecified)
system.caches.L0Cache_Controller.Replacement::total      4923262                       (Unspecified)
system.caches.L0Cache_Controller.Inv     |      701513     25.32%     25.32% |      680510     24.56%     49.88% |      695540     25.10%     74.99% |      693045     25.01%    100.00% (Unspecified)
system.caches.L0Cache_Controller.Inv::total      2770608                       (Unspecified)
system.caches.L0Cache_Controller.Data    |     1554018     24.90%     24.90% |     1520980     24.37%     49.27% |     1614214     25.87%     75.14% |     1551406     24.86%    100.00% (Unspecified)
system.caches.L0Cache_Controller.Data::total      6240618                       (Unspecified)
system.caches.L0Cache_Controller.ExData  |       29689     24.62%     24.62% |       29791     24.70%     49.32% |       29655     24.59%     73.92% |       31456     26.08%    100.00% (Unspecified)
system.caches.L0Cache_Controller.ExData::total       120591                       (Unspecified)
system.caches.L0Cache_Controller.I.Load  |     1117746     24.88%     24.88% |     1103006     24.55%     49.42% |     1144007     25.46%     74.89% |     1128441     25.11%    100.00% (Unspecified)
system.caches.L0Cache_Controller.I.Load::total      4493200                       (Unspecified)
system.caches.L0Cache_Controller.I.Ifetch |      120388     26.50%     26.50% |      107545     23.67%     50.17% |      113395     24.96%     75.13% |      113018     24.87%    100.00% (Unspecified)
system.caches.L0Cache_Controller.I.Ifetch::total       454346                       (Unspecified)
system.caches.L0Cache_Controller.I.Store |      172616     23.82%     23.82% |      168153     23.20%     47.02% |      214447     29.59%     76.61% |      169501     23.39%    100.00% (Unspecified)
system.caches.L0Cache_Controller.I.Store::total       724717                       (Unspecified)
system.caches.L0Cache_Controller.I.Inv   |      511679     25.31%     25.31% |      500787     24.77%     50.08% |      504757     24.97%     75.04% |      504615     24.96%    100.00% (Unspecified)
system.caches.L0Cache_Controller.I.Inv::total      2021838                       (Unspecified)
system.caches.L0Cache_Controller.IS_D.Data |     1208445     25.04%     25.04% |     1180760     24.46%     49.50% |     1227747     25.44%     74.93% |     1210003     25.07%    100.00% (Unspecified)
system.caches.L0Cache_Controller.IS_D.Data::total      4826955                       (Unspecified)
system.caches.L0Cache_Controller.IS_D.ExData |       29689     24.62%     24.62% |       29791     24.70%     49.32% |       29655     24.59%     73.92% |       31456     26.08%    100.00% (Unspecified)
system.caches.L0Cache_Controller.IS_D.ExData::total       120591                       (Unspecified)
system.caches.L0Cache_Controller.IM_D.Inv |           0      0.00%      0.00% |           1    100.00%    100.00% |           0      0.00%    100.00% |           0      0.00%    100.00% (Unspecified)
system.caches.L0Cache_Controller.IM_D.Inv::total            1                       (Unspecified)
system.caches.L0Cache_Controller.IM_D.Data |      345573     24.45%     24.45% |      340220     24.07%     48.51% |      386467     27.34%     75.85% |      341403     24.15%    100.00% (Unspecified)
system.caches.L0Cache_Controller.IM_D.Data::total      1413663                       (Unspecified)
system.caches.L0Cache_Controller.S.Load  |     5571848     25.11%     25.11% |     5518820     24.87%     49.99% |     5533161     24.94%     74.93% |     5563398     25.07%    100.00% (Unspecified)
system.caches.L0Cache_Controller.S.Load::total     22187227                       (Unspecified)
system.caches.L0Cache_Controller.S.Ifetch |    35473792     25.18%     25.18% |    34936561     24.80%     49.97% |    35201388     24.98%     74.96% |    35286409     25.04%    100.00% (Unspecified)
system.caches.L0Cache_Controller.S.Ifetch::total    140898150                       (Unspecified)
system.caches.L0Cache_Controller.S.Store |      172957     25.10%     25.10% |      172067     24.98%     50.08% |      172020     24.97%     75.05% |      171902     24.95%    100.00% (Unspecified)
system.caches.L0Cache_Controller.S.Store::total       688946                       (Unspecified)
system.caches.L0Cache_Controller.S.Replacement |      876159     24.96%     24.96% |      857295     24.43%     49.39% |      896706     25.55%     74.94% |      879504     25.06%    100.00% (Unspecified)
system.caches.L0Cache_Controller.S.Replacement::total      3509664                       (Unspecified)
system.caches.L0Cache_Controller.S.Inv   |      159282     25.36%     25.36% |      151356     24.09%     49.45% |      158979     25.31%     74.76% |      158554     25.24%    100.00% (Unspecified)
system.caches.L0Cache_Controller.S.Inv::total       628171                       (Unspecified)
system.caches.L0Cache_Controller.M.Load  |     1417581     25.38%     25.38% |     1383924     24.78%     50.16% |     1385028     24.80%     74.96% |     1398767     25.04%    100.00% (Unspecified)
system.caches.L0Cache_Controller.M.Load::total      5585300                       (Unspecified)
system.caches.L0Cache_Controller.M.Store |     1465543     25.59%     25.59% |     1429655     24.96%     50.54% |     1394222     24.34%     74.89% |     1438578     25.11%    100.00% (Unspecified)
system.caches.L0Cache_Controller.M.Store::total      5727998                       (Unspecified)
system.caches.L0Cache_Controller.M.Replacement |      344697     24.38%     24.38% |      341630     24.17%     48.55% |      384303     27.19%     75.74% |      342968     24.26%    100.00% (Unspecified)
system.caches.L0Cache_Controller.M.Replacement::total      1413598                       (Unspecified)
system.caches.L0Cache_Controller.M.Inv   |       30552     25.33%     25.33% |       28366     23.52%     48.85% |       31804     26.37%     75.23% |       29876     24.77%    100.00% (Unspecified)
system.caches.L0Cache_Controller.M.Inv::total       120598                       (Unspecified)
system.caches.L1Cache_Controller.Load    |     1238134     25.03%     25.03% |     1210551     24.47%     49.49% |     1257402     25.41%     74.91% |     1241459     25.09%    100.00% (Unspecified)
system.caches.L1Cache_Controller.Load::total      4947546                       (Unspecified)
system.caches.L1Cache_Controller.Store   |      345573     24.45%     24.45% |      340220     24.07%     48.51% |      386467     27.34%     75.85% |      341403     24.15%    100.00% (Unspecified)
system.caches.L1Cache_Controller.Store::total      1413663                       (Unspecified)
system.caches.L1Cache_Controller.PutM    |      344697     24.38%     24.38% |      341630     24.17%     48.55% |      384303     27.19%     75.74% |      342968     24.26%    100.00% (Unspecified)
system.caches.L1Cache_Controller.PutM::total      1413598                       (Unspecified)
system.caches.L1Cache_Controller.Replacement |     2041540     25.39%     25.39% |     1991620     24.77%     50.15% |     2003844     24.92%     75.07% |     2005019     24.93%    100.00% (Unspecified)
system.caches.L1Cache_Controller.Replacement::total      8042023                       (Unspecified)
system.caches.L1Cache_Controller.FwdGetM |       25530     23.01%     23.01% |       24447     22.04%     45.05% |       31682     28.56%     73.61% |       29280     26.39%    100.00% (Unspecified)
system.caches.L1Cache_Controller.FwdGetM::total       110939                       (Unspecified)
system.caches.L1Cache_Controller.Inv     |        3327     18.64%     18.64% |        3242     18.16%     36.80% |        6015     33.70%     70.50% |        5265     29.50%    100.00% (Unspecified)
system.caches.L1Cache_Controller.Inv::total        17849                       (Unspecified)
system.caches.L1Cache_Controller.PutAck  |      999544     25.36%     25.36% |      976892     24.78%     50.14% |      981694     24.91%     75.05% |      983617     24.95%    100.00% (Unspecified)
system.caches.L1Cache_Controller.PutAck::total      3941747                       (Unspecified)
system.caches.L1Cache_Controller.DataDirNoAcks |     1174585     25.25%     25.25% |     1150305     24.73%     49.99% |     1163753     25.02%     75.01% |     1162478     24.99%    100.00% (Unspecified)
system.caches.L1Cache_Controller.DataDirNoAcks::total      4651121                       (Unspecified)
system.caches.L1Cache_Controller.DataDirAcks |           1     11.11%     11.11% |           2     22.22%     33.33% |           0      0.00%     33.33% |           6     66.67%    100.00% (Unspecified)
system.caches.L1Cache_Controller.DataDirAcks::total            9                       (Unspecified)
system.caches.L1Cache_Controller.DataOwner |       16260     26.03%     26.03% |       15922     25.49%     51.51% |       14738     23.59%     75.11% |       15552     24.89%    100.00% (Unspecified)
system.caches.L1Cache_Controller.DataOwner::total        62472                       (Unspecified)
system.caches.L1Cache_Controller.InvAck  |        5325     29.85%     29.85% |        5824     32.65%     62.49% |        3138     17.59%     80.08% |        3553     19.92%    100.00% (Unspecified)
system.caches.L1Cache_Controller.InvAck::total        17840                       (Unspecified)
system.caches.L1Cache_Controller.LastInvAck |           1     11.11%     11.11% |           2     22.22%     33.33% |           0      0.00%     33.33% |           6     66.67%    100.00% (Unspecified)
system.caches.L1Cache_Controller.LastInvAck::total            9                       (Unspecified)
system.caches.L1Cache_Controller.WB_Data |       30552     25.33%     25.33% |       28366     23.52%     48.85% |       31804     26.37%     75.23% |       29876     24.77%    100.00% (Unspecified)
system.caches.L1Cache_Controller.WB_Data::total       120598                       (Unspecified)
system.caches.L1Cache_Controller.I.Load  |      856424     25.30%     25.30% |      836406     24.71%     50.00% |      846167     24.99%     74.99% |      846566     25.01%    100.00% (Unspecified)
system.caches.L1Cache_Controller.I.Load::total      3385563                       (Unspecified)
system.caches.L1Cache_Controller.I.Store |      160865     25.26%     25.26% |      157305     24.70%     49.96% |      159730     25.08%     75.03% |      159003     24.97%    100.00% (Unspecified)
system.caches.L1Cache_Controller.I.Store::total       636903                       (Unspecified)
system.caches.L1Cache_Controller.IS_D.FwdGetM |         121     20.83%     20.83% |         136     23.41%     44.23% |         179     30.81%     75.04% |         145     24.96%    100.00% (Unspecified)
system.caches.L1Cache_Controller.IS_D.FwdGetM::total          581                       (Unspecified)
system.caches.L1Cache_Controller.IS_D.DataDirNoAcks |      844625     25.28%     25.28% |      824759     24.68%     49.96% |      836424     25.03%     74.99% |      835732     25.01%    100.00% (Unspecified)
system.caches.L1Cache_Controller.IS_D.DataDirNoAcks::total      3341540                       (Unspecified)
system.caches.L1Cache_Controller.IS_D.DataOwner |       11799     26.80%     26.80% |       11647     26.46%     53.26% |        9743     22.13%     75.39% |       10834     24.61%    100.00% (Unspecified)
system.caches.L1Cache_Controller.IS_D.DataOwner::total        44023                       (Unspecified)
system.caches.L1Cache_Controller.IM_AD.FwdGetM |          81     17.12%     17.12% |         103     21.78%     38.90% |         169     35.73%     74.63% |         120     25.37%    100.00% (Unspecified)
system.caches.L1Cache_Controller.IM_AD.FwdGetM::total          473                       (Unspecified)
system.caches.L1Cache_Controller.IM_AD.DataDirNoAcks |      156405     25.29%     25.29% |      153029     24.74%     50.03% |      154738     25.02%     75.05% |      154286     24.95%    100.00% (Unspecified)
system.caches.L1Cache_Controller.IM_AD.DataDirNoAcks::total       618458                       (Unspecified)
system.caches.L1Cache_Controller.IM_AD.DataDirAcks |           1     12.50%     12.50% |           1     12.50%     25.00% |           0      0.00%     25.00% |           6     75.00%    100.00% (Unspecified)
system.caches.L1Cache_Controller.IM_AD.DataDirAcks::total            8                       (Unspecified)
system.caches.L1Cache_Controller.IM_AD.DataOwner |        4461     24.18%     24.18% |        4275     23.17%     47.35% |        4995     27.07%     74.43% |        4718     25.57%    100.00% (Unspecified)
system.caches.L1Cache_Controller.IM_AD.DataOwner::total        18449                       (Unspecified)
system.caches.L1Cache_Controller.IM_AD.InvAck |        4386     30.25%     30.25% |        5249     36.20%     66.44% |        2039     14.06%     80.50% |        2827     19.50%    100.00% (Unspecified)
system.caches.L1Cache_Controller.IM_AD.InvAck::total        14501                       (Unspecified)
system.caches.L1Cache_Controller.IM_A.LastInvAck |           1     12.50%     12.50% |           1     12.50%     25.00% |           0      0.00%     25.00% |           6     75.00%    100.00% (Unspecified)
system.caches.L1Cache_Controller.IM_A.LastInvAck::total            8                       (Unspecified)
system.caches.L1Cache_Controller.S.Load  |      363820     24.49%     24.49% |      356001     23.97%     48.46% |      391323     26.34%     74.80% |      374271     25.20%    100.00% (Unspecified)
system.caches.L1Cache_Controller.S.Load::total      1485415                       (Unspecified)
system.caches.L1Cache_Controller.S.Store |      173557     25.11%     25.11% |      172518     24.96%     50.07% |      172594     24.97%     75.05% |      172467     24.95%    100.00% (Unspecified)
system.caches.L1Cache_Controller.S.Store::total       691136                       (Unspecified)
system.caches.L1Cache_Controller.S.Replacement |      667642     25.36%     25.36% |      648902     24.65%     50.02% |      657743     24.99%     75.01% |      657909     24.99%    100.00% (Unspecified)
system.caches.L1Cache_Controller.S.Replacement::total      2632196                       (Unspecified)
system.caches.L1Cache_Controller.S.Inv   |        3318     18.63%     18.63% |        3242     18.21%     36.84% |        5990     33.64%     70.48% |        5257     29.52%    100.00% (Unspecified)
system.caches.L1Cache_Controller.S.Inv::total        17807                       (Unspecified)
system.caches.L1Cache_Controller.SM_AD.Inv |           2     16.67%     16.67% |           0      0.00%     16.67% |           3     25.00%     41.67% |           7     58.33%    100.00% (Unspecified)
system.caches.L1Cache_Controller.SM_AD.Inv::total           12                       (Unspecified)
system.caches.L1Cache_Controller.SM_AD.DataDirNoAcks |      173555     25.11%     25.11% |      172517     24.96%     50.07% |      172591     24.97%     75.05% |      172460     24.95%    100.00% (Unspecified)
system.caches.L1Cache_Controller.SM_AD.DataDirNoAcks::total       691123                       (Unspecified)
system.caches.L1Cache_Controller.SM_AD.DataDirAcks |           0      0.00%      0.00% |           1    100.00%    100.00% |           0      0.00%    100.00% |           0      0.00%    100.00% (Unspecified)
system.caches.L1Cache_Controller.SM_AD.DataDirAcks::total            1                       (Unspecified)
system.caches.L1Cache_Controller.SM_AD.InvAck |         939     28.12%     28.12% |         575     17.22%     45.34% |        1099     32.91%     78.26% |         726     21.74%    100.00% (Unspecified)
system.caches.L1Cache_Controller.SM_AD.InvAck::total         3339                       (Unspecified)
system.caches.L1Cache_Controller.SM_A.LastInvAck |           0      0.00%      0.00% |           1    100.00%    100.00% |           0      0.00%    100.00% |           0      0.00%    100.00% (Unspecified)
system.caches.L1Cache_Controller.SM_A.LastInvAck::total            1                       (Unspecified)
system.caches.L1Cache_Controller.M.Load  |       17890     23.36%     23.36% |       18144     23.70%     47.06% |       19912     26.01%     73.07% |       20622     26.93%    100.00% (Unspecified)
system.caches.L1Cache_Controller.M.Load::total        76568                       (Unspecified)
system.caches.L1Cache_Controller.M.Store |       11151     13.02%     13.02% |       10397     12.14%     25.17% |       54143     63.23%     88.40% |        9933     11.60%    100.00% (Unspecified)
system.caches.L1Cache_Controller.M.Store::total        85624                       (Unspecified)
system.caches.L1Cache_Controller.M.Replacement |      331902     25.34%     25.34% |      327990     25.05%     50.39% |      323951     24.74%     75.13% |      325708     24.87%    100.00% (Unspecified)
system.caches.L1Cache_Controller.M.Replacement::total      1309551                       (Unspecified)
system.caches.L1Cache_Controller.M.FwdGetM |       14299     22.91%     22.91% |       13458     21.56%     44.47% |       18093     28.98%     73.45% |       16574     26.55%    100.00% (Unspecified)
system.caches.L1Cache_Controller.M.FwdGetM::total        62424                       (Unspecified)
system.caches.L1Cache_Controller.M_P.PutM |      344696     24.38%     24.38% |      341630     24.17%     48.55% |      384300     27.19%     75.74% |      342965     24.26%    100.00% (Unspecified)
system.caches.L1Cache_Controller.M_P.PutM::total      1413591                       (Unspecified)
system.caches.L1Cache_Controller.M_P.Replacement |       19718     26.76%     26.76% |       17715     24.04%     50.80% |       18720     25.40%     76.20% |       17539     23.80%    100.00% (Unspecified)
system.caches.L1Cache_Controller.M_P.Replacement::total        73692                       (Unspecified)
system.caches.L1Cache_Controller.M_P.FwdGetM |       10835     23.10%     23.10% |       10650     22.70%     45.80% |       13087     27.90%     73.70% |       12340     26.30%    100.00% (Unspecified)
system.caches.L1Cache_Controller.M_P.FwdGetM::total        46912                       (Unspecified)
system.caches.L1Cache_Controller.M_P.WB_Data |           0      0.00%      0.00% |           1    100.00%    100.00% |           0      0.00%    100.00% |           0      0.00%    100.00% (Unspecified)
system.caches.L1Cache_Controller.M_P.WB_Data::total            1                       (Unspecified)
system.caches.L1Cache_Controller.MP_D.PutM |           1     14.29%     14.29% |           0      0.00%     14.29% |           3     42.86%     57.14% |           3     42.86%    100.00% (Unspecified)
system.caches.L1Cache_Controller.MP_D.PutM::total            7                       (Unspecified)
system.caches.L1Cache_Controller.MP_D.Replacement |       19745     26.74%     26.74% |       17754     24.05%     50.79% |       18783     25.44%     76.23% |       17554     23.77%    100.00% (Unspecified)
system.caches.L1Cache_Controller.MP_D.Replacement::total        73836                       (Unspecified)
system.caches.L1Cache_Controller.MP_D.FwdGetM |         179     35.73%     35.73% |          99     19.76%     55.49% |         123     24.55%     80.04% |         100     19.96%    100.00% (Unspecified)
system.caches.L1Cache_Controller.MP_D.FwdGetM::total          501                       (Unspecified)
system.caches.L1Cache_Controller.MP_D.WB_Data |       30552     25.33%     25.33% |       28365     23.52%     48.85% |       31804     26.37%     75.23% |       29876     24.77%    100.00% (Unspecified)
system.caches.L1Cache_Controller.MP_D.WB_Data::total       120597                       (Unspecified)
system.caches.L1Cache_Controller.MI_A.Replacement |      332712     25.35%     25.35% |      328582     25.03%     50.38% |      324766     24.74%     75.13% |      326442     24.87%    100.00% (Unspecified)
system.caches.L1Cache_Controller.MI_A.Replacement::total      1312502                       (Unspecified)
system.caches.L1Cache_Controller.MI_A.FwdGetM |          15     31.25%     31.25% |           1      2.08%     33.33% |          31     64.58%     97.92% |           1      2.08%    100.00% (Unspecified)
system.caches.L1Cache_Controller.MI_A.FwdGetM::total           48                       (Unspecified)
system.caches.L1Cache_Controller.MI_A.PutAck |      331887     25.34%     25.34% |      327989     25.05%     50.39% |      323920     24.74%     75.13% |      325707     24.87%    100.00% (Unspecified)
system.caches.L1Cache_Controller.MI_A.PutAck::total      1309503                       (Unspecified)
system.caches.L1Cache_Controller.SI_A.Replacement |      669821     25.37%     25.37% |      650677     24.64%     50.01% |      659881     24.99%     75.01% |      659867     24.99%    100.00% (Unspecified)
system.caches.L1Cache_Controller.SI_A.Replacement::total      2640246                       (Unspecified)
system.caches.L1Cache_Controller.SI_A.Inv |           7     23.33%     23.33% |           0      0.00%     23.33% |          22     73.33%     96.67% |           1      3.33%    100.00% (Unspecified)
system.caches.L1Cache_Controller.SI_A.Inv::total           30                       (Unspecified)
system.caches.L1Cache_Controller.SI_A.PutAck |      667635     25.36%     25.36% |      648902     24.65%     50.02% |      657721     24.99%     75.01% |      657908     24.99%    100.00% (Unspecified)
system.caches.L1Cache_Controller.SI_A.PutAck::total      2632166                       (Unspecified)
system.caches.L1Cache_Controller.II_A.PutAck |          22     28.21%     28.21% |           1      1.28%     29.49% |          53     67.95%     97.44% |           2      2.56%    100.00% (Unspecified)
system.caches.L1Cache_Controller.II_A.PutAck::total           78                       (Unspecified)
system.caches.Directory_Controller.GetS       3385563      0.00%      0.00% (Unspecified)
system.caches.Directory_Controller.GetM       1328039      0.00%      0.00% (Unspecified)
system.caches.Directory_Controller.PutSNotLast       508693      0.00%      0.00% (Unspecified)
system.caches.Directory_Controller.PutSNotLastNonSharer           30      0.00%      0.00% (Unspecified)
system.caches.Directory_Controller.PutSLast       322125      0.00%      0.00% (Unspecified)
system.caches.Directory_Controller.PutSLastWT      1801348      0.00%      0.00% (Unspecified)
system.caches.Directory_Controller.PutMOwner       169823      0.00%      0.00% (Unspecified)
system.caches.Directory_Controller.PutMOwnerWT      1139680      0.00%      0.00% (Unspecified)
system.caches.Directory_Controller.PutMNonOwner           48      0.00%      0.00% (Unspecified)
system.caches.Directory_Controller.Sync        318564      0.00%      0.00% (Unspecified)
system.caches.Directory_Controller.MemData      3135260      0.00%      0.00% (Unspecified)
system.caches.Directory_Controller.LastMemAck      3259592      0.00%      0.00% (Unspecified)
system.caches.Directory_Controller.I.GetS      2557052      0.00%      0.00% (Unspecified)
system.caches.Directory_Controller.I.GetM       578208      0.00%      0.00% (Unspecified)
system.caches.Directory_Controller.S.GetS       512655      0.00%      0.00% (Unspecified)
system.caches.Directory_Controller.S.GetM       705190      0.00%      0.00% (Unspecified)
system.caches.Directory_Controller.S.PutSNotLast       508693      0.00%      0.00% (Unspecified)
system.caches.Directory_Controller.S.PutSLast       322125      0.00%      0.00% (Unspecified)
system.caches.Directory_Controller.S.PutSLastWT      1801348      0.00%      0.00% (Unspecified)
system.caches.Directory_Controller.M.GetS        44023      0.00%      0.00% (Unspecified)
system.caches.Directory_Controller.M.GetM        18449      0.00%      0.00% (Unspecified)
system.caches.Directory_Controller.M.PutSNotLastNonSharer           30      0.00%      0.00% (Unspecified)
system.caches.Directory_Controller.M.PutMOwner       169823      0.00%      0.00% (Unspecified)
system.caches.Directory_Controller.M.PutMOwnerWT      1139680      0.00%      0.00% (Unspecified)
system.caches.Directory_Controller.M.PutMNonOwner           48      0.00%      0.00% (Unspecified)
system.caches.Directory_Controller.LLCOnly.GetS       271833      0.00%      0.00% (Unspecified)
system.caches.Directory_Controller.LLCOnly.GetM        26192      0.00%      0.00% (Unspecified)
system.caches.Directory_Controller.LLCOnly.Sync       318564      0.00%      0.00% (Unspecified)
system.caches.Directory_Controller.LLCOnly_m.LastMemAck      2119912      0.00%      0.00% (Unspecified)
system.caches.Directory_Controller.S_m.MemData      2557052      0.00%      0.00% (Unspecified)
system.caches.Directory_Controller.M_m.MemData       578208      0.00%      0.00% (Unspecified)
system.caches.Directory_Controller.MI_m.LastMemAck      1139680      0.00%      0.00% (Unspecified)
system.caches.RequestType.LD.latency_hist_seqr::bucket_size          128                       (Unspecified)
system.caches.RequestType.LD.latency_hist_seqr::max_bucket         1279                       (Unspecified)
system.caches.RequestType.LD.latency_hist_seqr::samples     32265727                       (Unspecified)
system.caches.RequestType.LD.latency_hist_seqr::mean    66.364187                       (Unspecified)
system.caches.RequestType.LD.latency_hist_seqr::gmean     2.034720                       (Unspecified)
system.caches.RequestType.LD.latency_hist_seqr::stdev   214.447947                       (Unspecified)
system.caches.RequestType.LD.latency_hist_seqr |    29357462     90.99%     90.99% |      105923      0.33%     91.31% |      128695      0.40%     91.71% |      222538      0.69%     92.40% |      423942      1.31%     93.72% |      748419      2.32%     96.04% |      796402      2.47%     98.51% |      467632      1.45%     99.95% |       14714      0.05%    100.00% |           0      0.00%    100.00% (Unspecified)
system.caches.RequestType.LD.latency_hist_seqr::total     32265727                       (Unspecified)
system.caches.RequestType.LD.hit_latency_hist_seqr::bucket_size            1                       (Unspecified)
system.caches.RequestType.LD.hit_latency_hist_seqr::max_bucket            9                       (Unspecified)
system.caches.RequestType.LD.hit_latency_hist_seqr::samples     27772527                       (Unspecified)
system.caches.RequestType.LD.hit_latency_hist_seqr::mean            1                       (Unspecified)
system.caches.RequestType.LD.hit_latency_hist_seqr::gmean            1                       (Unspecified)
system.caches.RequestType.LD.hit_latency_hist_seqr |           0      0.00%      0.00% |    27772527    100.00%    100.00% |           0      0.00%    100.00% |           0      0.00%    100.00% |           0      0.00%    100.00% |           0      0.00%    100.00% |           0      0.00%    100.00% |           0      0.00%    100.00% |           0      0.00%    100.00% |           0      0.00%    100.00% (Unspecified)
system.caches.RequestType.LD.hit_latency_hist_seqr::total     27772527                       (Unspecified)
system.caches.RequestType.LD.miss_latency_hist_seqr::bucket_size          128                       (Unspecified)
system.caches.RequestType.LD.miss_latency_hist_seqr::max_bucket         1279                       (Unspecified)
system.caches.RequestType.LD.miss_latency_hist_seqr::samples      4493200                       (Unspecified)
system.caches.RequestType.LD.miss_latency_hist_seqr::mean   470.381069                       (Unspecified)
system.caches.RequestType.LD.miss_latency_hist_seqr::gmean   164.200994                       (Unspecified)
system.caches.RequestType.LD.miss_latency_hist_seqr::stdev   374.969336                       (Unspecified)
system.caches.RequestType.LD.miss_latency_hist_seqr |     1584935     35.27%     35.27% |      105923      2.36%     37.63% |      128695      2.86%     40.50% |      222538      4.95%     45.45% |      423942      9.44%     54.88% |      748419     16.66%     71.54% |      796402     17.72%     89.26% |      467632     10.41%     99.67% |       14714      0.33%    100.00% |           0      0.00%    100.00% (Unspecified)
system.caches.RequestType.LD.miss_latency_hist_seqr::total      4493200                       (Unspecified)
system.caches.RequestType.ST.latency_hist_seqr::bucket_size          128                       (Unspecified)
system.caches.RequestType.ST.latency_hist_seqr::max_bucket         1279                       (Unspecified)
system.caches.RequestType.ST.latency_hist_seqr::samples      7028278                       (Unspecified)
system.caches.RequestType.ST.latency_hist_seqr::mean    98.960865                       (Unspecified)
system.caches.RequestType.ST.latency_hist_seqr::gmean     3.155277                       (Unspecified)
system.caches.RequestType.ST.latency_hist_seqr::stdev   246.713633                       (Unspecified)
system.caches.RequestType.ST.latency_hist_seqr |     5784167     82.30%     82.30% |      229610      3.27%     85.57% |      303114      4.31%     89.88% |      173959      2.48%     92.35% |       47122      0.67%     93.02% |       74040      1.05%     94.08% |      156292      2.22%     96.30% |      255422      3.63%     99.94% |        4552      0.06%    100.00% |           0      0.00%    100.00% (Unspecified)
system.caches.RequestType.ST.latency_hist_seqr::total      7028278                       (Unspecified)
system.caches.RequestType.ST.hit_latency_hist_seqr::bucket_size            1                       (Unspecified)
system.caches.RequestType.ST.hit_latency_hist_seqr::max_bucket            9                       (Unspecified)
system.caches.RequestType.ST.hit_latency_hist_seqr::samples      5635288                       (Unspecified)
system.caches.RequestType.ST.hit_latency_hist_seqr::mean            1                       (Unspecified)
system.caches.RequestType.ST.hit_latency_hist_seqr::gmean            1                       (Unspecified)
system.caches.RequestType.ST.hit_latency_hist_seqr |           0      0.00%      0.00% |     5635288    100.00%    100.00% |           0      0.00%    100.00% |           0      0.00%    100.00% |           0      0.00%    100.00% |           0      0.00%    100.00% |           0      0.00%    100.00% |           0      0.00%    100.00% |           0      0.00%    100.00% |           0      0.00%    100.00% (Unspecified)
system.caches.RequestType.ST.hit_latency_hist_seqr::total      5635288                       (Unspecified)
system.caches.RequestType.ST.miss_latency_hist_seqr::bucket_size          128                       (Unspecified)
system.caches.RequestType.ST.miss_latency_hist_seqr::max_bucket         1279                       (Unspecified)
system.caches.RequestType.ST.miss_latency_hist_seqr::samples      1392990                       (Unspecified)
system.caches.RequestType.ST.miss_latency_hist_seqr::mean   495.257812                       (Unspecified)
system.caches.RequestType.ST.miss_latency_hist_seqr::gmean   329.514518                       (Unspecified)
system.caches.RequestType.ST.miss_latency_hist_seqr::stdev   333.515242                       (Unspecified)
system.caches.RequestType.ST.miss_latency_hist_seqr |      148879     10.69%     10.69% |      229610     16.48%     27.17% |      303114     21.76%     48.93% |      173959     12.49%     61.42% |       47122      3.38%     64.80% |       74040      5.32%     70.12% |      156292     11.22%     81.34% |      255422     18.34%     99.67% |        4552      0.33%    100.00% |           0      0.00%    100.00% (Unspecified)
system.caches.RequestType.ST.miss_latency_hist_seqr::total      1392990                       (Unspecified)
system.caches.RequestType.IFETCH.latency_hist_seqr::bucket_size          128                       (Unspecified)
system.caches.RequestType.IFETCH.latency_hist_seqr::max_bucket         1279                       (Unspecified)
system.caches.RequestType.IFETCH.latency_hist_seqr::samples    141352496                       (Unspecified)
system.caches.RequestType.IFETCH.latency_hist_seqr::mean     2.448748                       (Unspecified)
system.caches.RequestType.IFETCH.latency_hist_seqr::gmean     1.018400                       (Unspecified)
system.caches.RequestType.IFETCH.latency_hist_seqr::stdev    30.014037                       (Unspecified)
system.caches.RequestType.IFETCH.latency_hist_seqr |   140986259     99.74%     99.74% |       42380      0.03%     99.77% |       49035      0.03%     99.81% |       61172      0.04%     99.85% |       78743      0.06%     99.90% |       76132      0.05%     99.96% |       42669      0.03%     99.99% |       15987      0.01%    100.00% |         119      0.00%    100.00% |           0      0.00%    100.00% (Unspecified)
system.caches.RequestType.IFETCH.latency_hist_seqr::total    141352496                       (Unspecified)
system.caches.RequestType.IFETCH.hit_latency_hist_seqr::bucket_size            1                       (Unspecified)
system.caches.RequestType.IFETCH.hit_latency_hist_seqr::max_bucket            9                       (Unspecified)
system.caches.RequestType.IFETCH.hit_latency_hist_seqr::samples    140898150                       (Unspecified)
system.caches.RequestType.IFETCH.hit_latency_hist_seqr::mean            1                       (Unspecified)
system.caches.RequestType.IFETCH.hit_latency_hist_seqr::gmean            1                       (Unspecified)
system.caches.RequestType.IFETCH.hit_latency_hist_seqr |           0      0.00%      0.00% |   140898150    100.00%    100.00% |           0      0.00%    100.00% |           0      0.00%    100.00% |           0      0.00%    100.00% |           0      0.00%    100.00% |           0      0.00%    100.00% |           0      0.00%    100.00% |           0      0.00%    100.00% |           0      0.00%    100.00% (Unspecified)
system.caches.RequestType.IFETCH.hit_latency_hist_seqr::total    140898150                       (Unspecified)
system.caches.RequestType.IFETCH.miss_latency_hist_seqr::bucket_size          128                       (Unspecified)
system.caches.RequestType.IFETCH.miss_latency_hist_seqr::max_bucket         1279                       (Unspecified)
system.caches.RequestType.IFETCH.miss_latency_hist_seqr::samples       454346                       (Unspecified)
system.caches.RequestType.IFETCH.miss_latency_hist_seqr::mean   451.722997                       (Unspecified)
system.caches.RequestType.IFETCH.miss_latency_hist_seqr::gmean   290.709308                       (Unspecified)
system.caches.RequestType.IFETCH.miss_latency_hist_seqr::stdev   278.863444                       (Unspecified)
system.caches.RequestType.IFETCH.miss_latency_hist_seqr |       88109     19.39%     19.39% |       42380      9.33%     28.72% |       49035     10.79%     39.51% |       61172     13.46%     52.98% |       78743     17.33%     70.31% |       76132     16.76%     87.06% |       42669      9.39%     96.46% |       15987      3.52%     99.97% |         119      0.03%    100.00% |           0      0.00%    100.00% (Unspecified)
system.caches.RequestType.IFETCH.miss_latency_hist_seqr::total       454346                       (Unspecified)
system.caches.RequestType.RMW_Read.latency_hist_seqr::bucket_size          128                       (Unspecified)
system.caches.RequestType.RMW_Read.latency_hist_seqr::max_bucket         1279                       (Unspecified)
system.caches.RequestType.RMW_Read.latency_hist_seqr::samples        13297                       (Unspecified)
system.caches.RequestType.RMW_Read.latency_hist_seqr::mean    38.947657                       (Unspecified)
system.caches.RequestType.RMW_Read.latency_hist_seqr::gmean     2.410151                       (Unspecified)
system.caches.RequestType.RMW_Read.latency_hist_seqr::stdev   126.012549                       (Unspecified)
system.caches.RequestType.RMW_Read.latency_hist_seqr |       12040     90.55%     90.55% |         481      3.62%     94.16% |         337      2.53%     96.70% |         150      1.13%     97.83% |         113      0.85%     98.68% |         107      0.80%     99.48% |          52      0.39%     99.87% |          17      0.13%    100.00% |           0      0.00%    100.00% |           0      0.00%    100.00% (Unspecified)
system.caches.RequestType.RMW_Read.latency_hist_seqr::total        13297                       (Unspecified)
system.caches.RequestType.RMW_Read.hit_latency_hist_seqr::bucket_size            1                       (Unspecified)
system.caches.RequestType.RMW_Read.hit_latency_hist_seqr::max_bucket            9                       (Unspecified)
system.caches.RequestType.RMW_Read.hit_latency_hist_seqr::samples        10509                       (Unspecified)
system.caches.RequestType.RMW_Read.hit_latency_hist_seqr::mean            1                       (Unspecified)
system.caches.RequestType.RMW_Read.hit_latency_hist_seqr::gmean            1                       (Unspecified)
system.caches.RequestType.RMW_Read.hit_latency_hist_seqr |           0      0.00%      0.00% |       10509    100.00%    100.00% |           0      0.00%    100.00% |           0      0.00%    100.00% |           0      0.00%    100.00% |           0      0.00%    100.00% |           0      0.00%    100.00% |           0      0.00%    100.00% |           0      0.00%    100.00% |           0      0.00%    100.00% (Unspecified)
system.caches.RequestType.RMW_Read.hit_latency_hist_seqr::total        10509                       (Unspecified)
system.caches.RequestType.RMW_Read.miss_latency_hist_seqr::bucket_size          128                       (Unspecified)
system.caches.RequestType.RMW_Read.miss_latency_hist_seqr::max_bucket         1279                       (Unspecified)
system.caches.RequestType.RMW_Read.miss_latency_hist_seqr::samples         2788                       (Unspecified)
system.caches.RequestType.RMW_Read.miss_latency_hist_seqr::mean   181.986370                       (Unspecified)
system.caches.RequestType.RMW_Read.miss_latency_hist_seqr::gmean    66.391085                       (Unspecified)
system.caches.RequestType.RMW_Read.miss_latency_hist_seqr::stdev   223.288404                       (Unspecified)
system.caches.RequestType.RMW_Read.miss_latency_hist_seqr |        1531     54.91%     54.91% |         481     17.25%     72.17% |         337     12.09%     84.25% |         150      5.38%     89.63% |         113      4.05%     93.69% |         107      3.84%     97.53% |          52      1.87%     99.39% |          17      0.61%    100.00% |           0      0.00%    100.00% |           0      0.00%    100.00% (Unspecified)
system.caches.RequestType.RMW_Read.miss_latency_hist_seqr::total         2788                       (Unspecified)
system.caches.RequestType.Locked_RMW_Read.latency_hist_seqr::bucket_size          128                       (Unspecified)
system.caches.RequestType.Locked_RMW_Read.latency_hist_seqr::max_bucket         1279                       (Unspecified)
system.caches.RequestType.Locked_RMW_Read.latency_hist_seqr::samples        50043                       (Unspecified)
system.caches.RequestType.Locked_RMW_Read.latency_hist_seqr::mean    54.552785                       (Unspecified)
system.caches.RequestType.Locked_RMW_Read.latency_hist_seqr::gmean     5.346805                       (Unspecified)
system.caches.RequestType.Locked_RMW_Read.latency_hist_seqr::stdev    98.520791                       (Unspecified)
system.caches.RequestType.Locked_RMW_Read.latency_hist_seqr |       40408     80.75%     80.75% |        6491     12.97%     93.72% |        2466      4.93%     98.65% |         670      1.34%     99.98% |           6      0.01%    100.00% |           2      0.00%    100.00% |           0      0.00%    100.00% |           0      0.00%    100.00% |           0      0.00%    100.00% |           0      0.00%    100.00% (Unspecified)
system.caches.RequestType.Locked_RMW_Read.latency_hist_seqr::total        50043                       (Unspecified)
system.caches.RequestType.Locked_RMW_Read.hit_latency_hist_seqr::bucket_size            1                       (Unspecified)
system.caches.RequestType.Locked_RMW_Read.hit_latency_hist_seqr::max_bucket            9                       (Unspecified)
system.caches.RequestType.Locked_RMW_Read.hit_latency_hist_seqr::samples        32158                       (Unspecified)
system.caches.RequestType.Locked_RMW_Read.hit_latency_hist_seqr::mean            1                       (Unspecified)
system.caches.RequestType.Locked_RMW_Read.hit_latency_hist_seqr::gmean            1                       (Unspecified)
system.caches.RequestType.Locked_RMW_Read.hit_latency_hist_seqr |           0      0.00%      0.00% |       32158    100.00%    100.00% |           0      0.00%    100.00% |           0      0.00%    100.00% |           0      0.00%    100.00% |           0      0.00%    100.00% |           0      0.00%    100.00% |           0      0.00%    100.00% |           0      0.00%    100.00% |           0      0.00%    100.00% (Unspecified)
system.caches.RequestType.Locked_RMW_Read.hit_latency_hist_seqr::total        32158                       (Unspecified)
system.caches.RequestType.Locked_RMW_Read.miss_latency_hist_seqr::bucket_size          128                       (Unspecified)
system.caches.RequestType.Locked_RMW_Read.miss_latency_hist_seqr::max_bucket         1279                       (Unspecified)
system.caches.RequestType.Locked_RMW_Read.miss_latency_hist_seqr::samples        17885                       (Unspecified)
system.caches.RequestType.Locked_RMW_Read.miss_latency_hist_seqr::mean   150.842997                       (Unspecified)
system.caches.RequestType.Locked_RMW_Read.miss_latency_hist_seqr::gmean   108.953014                       (Unspecified)
system.caches.RequestType.Locked_RMW_Read.miss_latency_hist_seqr::stdev   112.829651                       (Unspecified)
system.caches.RequestType.Locked_RMW_Read.miss_latency_hist_seqr |        8250     46.13%     46.13% |        6491     36.29%     82.42% |        2466     13.79%     96.21% |         670      3.75%     99.96% |           6      0.03%     99.99% |           2      0.01%    100.00% |           0      0.00%    100.00% |           0      0.00%    100.00% |           0      0.00%    100.00% |           0      0.00%    100.00% (Unspecified)
system.caches.RequestType.Locked_RMW_Read.miss_latency_hist_seqr::total        17885                       (Unspecified)
system.caches.RequestType.Locked_RMW_Write.latency_hist_seqr::bucket_size            1                       (Unspecified)
system.caches.RequestType.Locked_RMW_Write.latency_hist_seqr::max_bucket            9                       (Unspecified)
system.caches.RequestType.Locked_RMW_Write.latency_hist_seqr::samples        50043                       (Unspecified)
system.caches.RequestType.Locked_RMW_Write.latency_hist_seqr::mean            1                       (Unspecified)
system.caches.RequestType.Locked_RMW_Write.latency_hist_seqr::gmean            1                       (Unspecified)
system.caches.RequestType.Locked_RMW_Write.latency_hist_seqr |           0      0.00%      0.00% |       50043    100.00%    100.00% |           0      0.00%    100.00% |           0      0.00%    100.00% |           0      0.00%    100.00% |           0      0.00%    100.00% |           0      0.00%    100.00% |           0      0.00%    100.00% |           0      0.00%    100.00% |           0      0.00%    100.00% (Unspecified)
system.caches.RequestType.Locked_RMW_Write.latency_hist_seqr::total        50043                       (Unspecified)
system.caches.RequestType.Locked_RMW_Write.hit_latency_hist_seqr::bucket_size            1                       (Unspecified)
system.caches.RequestType.Locked_RMW_Write.hit_latency_hist_seqr::max_bucket            9                       (Unspecified)
system.caches.RequestType.Locked_RMW_Write.hit_latency_hist_seqr::samples        50043                       (Unspecified)
system.caches.RequestType.Locked_RMW_Write.hit_latency_hist_seqr::mean            1                       (Unspecified)
system.caches.RequestType.Locked_RMW_Write.hit_latency_hist_seqr::gmean            1                       (Unspecified)
system.caches.RequestType.Locked_RMW_Write.hit_latency_hist_seqr |           0      0.00%      0.00% |       50043    100.00%    100.00% |           0      0.00%    100.00% |           0      0.00%    100.00% |           0      0.00%    100.00% |           0      0.00%    100.00% |           0      0.00%    100.00% |           0      0.00%    100.00% |           0      0.00%    100.00% |           0      0.00%    100.00% (Unspecified)
system.caches.RequestType.Locked_RMW_Write.hit_latency_hist_seqr::total        50043                       (Unspecified)
system.caches.controllers0.DCache.m_demand_hits            0                       # Number of cache demand hits (Unspecified)
system.caches.controllers0.DCache.m_demand_misses            0                       # Number of cache demand misses (Unspecified)
system.caches.controllers0.DCache.m_demand_accesses            0                       # Number of cache demand accesses (Unspecified)
system.caches.controllers0.ICache.m_demand_hits            0                       # Number of cache demand hits (Unspecified)
system.caches.controllers0.ICache.m_demand_misses            0                       # Number of cache demand misses (Unspecified)
system.caches.controllers0.ICache.m_demand_accesses            0                       # Number of cache demand accesses (Unspecified)
system.caches.controllers0.forwardFromL1.m_buf_msgs    46.069356                       # Average number of messages in buffer (Unspecified)
system.caches.controllers0.forwardFromL1.m_stall_time  5000.195283                       # Average number of cycles messages are stalled in this MB (Unspecified)
system.caches.controllers0.mandatoryQueue.m_buf_msgs     0.053119                       # Average number of messages in buffer (Unspecified)
system.caches.controllers0.mandatoryQueue.m_stall_time   999.999999                       # Average number of cycles messages are stalled in this MB (Unspecified)
system.caches.controllers0.power_state.pwrStateResidencyTicks::UNDEFINED 856798207000                       # Cumulative time (in ticks) in various power states (Tick)
system.caches.controllers0.requestToL1.m_buf_msgs     0.002251                       # Average number of messages in buffer (Unspecified)
system.caches.controllers0.requestToL1.m_stall_time   999.999998                       # Average number of cycles messages are stalled in this MB (Unspecified)
system.caches.controllers0.responseFromL1.m_buf_msgs     0.001848                       # Average number of messages in buffer (Unspecified)
system.caches.controllers0.responseFromL1.m_stall_time  4999.999236                       # Average number of cycles messages are stalled in this MB (Unspecified)
system.caches.controllers0.responseToL1.m_buf_msgs     0.000036                       # Average number of messages in buffer (Unspecified)
system.caches.controllers0.responseToL1.m_stall_time   999.981359                       # Average number of cycles messages are stalled in this MB (Unspecified)
system.caches.controllers0.xyzStatsObject.power_state.pwrStateResidencyTicks::UNDEFINED 856798207000                       # Cumulative time (in ticks) in various power states (Tick)
system.caches.controllers1.DCache.m_demand_hits            0                       # Number of cache demand hits (Unspecified)
system.caches.controllers1.DCache.m_demand_misses            0                       # Number of cache demand misses (Unspecified)
system.caches.controllers1.DCache.m_demand_accesses            0                       # Number of cache demand accesses (Unspecified)
system.caches.controllers1.ICache.m_demand_hits            0                       # Number of cache demand hits (Unspecified)
system.caches.controllers1.ICache.m_demand_misses            0                       # Number of cache demand misses (Unspecified)
system.caches.controllers1.ICache.m_demand_accesses            0                       # Number of cache demand accesses (Unspecified)
system.caches.controllers1.forwardFromL1.m_buf_msgs    58.719577                       # Average number of messages in buffer (Unspecified)
system.caches.controllers1.forwardFromL1.m_stall_time  4970.421064                       # Average number of cycles messages are stalled in this MB (Unspecified)
system.caches.controllers1.forwardFromL1.m_stall_count            1                       # Number of times messages were stalled (Unspecified)
system.caches.controllers1.mandatoryQueue.m_buf_msgs     0.052311                       # Average number of messages in buffer (Unspecified)
system.caches.controllers1.mandatoryQueue.m_stall_time   994.040251                       # Average number of cycles messages are stalled in this MB (Unspecified)
system.caches.controllers1.power_state.pwrStateResidencyTicks::UNDEFINED 856798207000                       # Cumulative time (in ticks) in various power states (Tick)
system.caches.controllers1.requestToL1.m_buf_msgs     0.002209                       # Average number of messages in buffer (Unspecified)
system.caches.controllers1.requestToL1.m_stall_time   994.040250                       # Average number of cycles messages are stalled in this MB (Unspecified)
system.caches.controllers1.responseFromL1.m_buf_msgs     0.001810                       # Average number of messages in buffer (Unspecified)
system.caches.controllers1.responseFromL1.m_stall_time  4970.201093                       # Average number of cycles messages are stalled in this MB (Unspecified)
system.caches.controllers1.responseToL1.m_buf_msgs     0.000033                       # Average number of messages in buffer (Unspecified)
system.caches.controllers1.responseToL1.m_stall_time   993.995723                       # Average number of cycles messages are stalled in this MB (Unspecified)
system.caches.controllers1.xyzStatsObject.power_state.pwrStateResidencyTicks::UNDEFINED 856798207000                       # Cumulative time (in ticks) in various power states (Tick)
system.caches.controllers2.DCache.m_demand_hits            0                       # Number of cache demand hits (Unspecified)
system.caches.controllers2.DCache.m_demand_misses            0                       # Number of cache demand misses (Unspecified)
system.caches.controllers2.DCache.m_demand_accesses            0                       # Number of cache demand accesses (Unspecified)
system.caches.controllers2.ICache.m_demand_hits            0                       # Number of cache demand hits (Unspecified)
system.caches.controllers2.ICache.m_demand_misses            0                       # Number of cache demand misses (Unspecified)
system.caches.controllers2.ICache.m_demand_accesses            0                       # Number of cache demand accesses (Unspecified)
system.caches.controllers2.forwardFromL1.m_buf_msgs    80.709655                       # Average number of messages in buffer (Unspecified)
system.caches.controllers2.forwardFromL1.m_stall_time  4970.370874                       # Average number of cycles messages are stalled in this MB (Unspecified)
system.caches.controllers2.mandatoryQueue.m_buf_msgs     0.052705                       # Average number of messages in buffer (Unspecified)
system.caches.controllers2.mandatoryQueue.m_stall_time   993.967915                       # Average number of cycles messages are stalled in this MB (Unspecified)
system.caches.controllers2.power_state.pwrStateResidencyTicks::UNDEFINED 856798207000                       # Cumulative time (in ticks) in various power states (Tick)
system.caches.controllers2.requestToL1.m_buf_msgs     0.002367                       # Average number of messages in buffer (Unspecified)
system.caches.controllers2.requestToL1.m_stall_time   993.967913                       # Average number of cycles messages are stalled in this MB (Unspecified)
system.caches.controllers2.responseFromL1.m_buf_msgs     0.001919                       # Average number of messages in buffer (Unspecified)
system.caches.controllers2.responseFromL1.m_stall_time  4969.838872                       # Average number of cycles messages are stalled in this MB (Unspecified)
system.caches.controllers2.responseToL1.m_buf_msgs     0.000037                       # Average number of messages in buffer (Unspecified)
system.caches.controllers2.responseToL1.m_stall_time   993.957297                       # Average number of cycles messages are stalled in this MB (Unspecified)
system.caches.controllers2.xyzStatsObject.power_state.pwrStateResidencyTicks::UNDEFINED 856798207000                       # Cumulative time (in ticks) in various power states (Tick)
system.caches.controllers3.DCache.m_demand_hits            0                       # Number of cache demand hits (Unspecified)
system.caches.controllers3.DCache.m_demand_misses            0                       # Number of cache demand misses (Unspecified)
system.caches.controllers3.DCache.m_demand_accesses            0                       # Number of cache demand accesses (Unspecified)
system.caches.controllers3.ICache.m_demand_hits            0                       # Number of cache demand hits (Unspecified)
system.caches.controllers3.ICache.m_demand_misses            0                       # Number of cache demand misses (Unspecified)
system.caches.controllers3.ICache.m_demand_accesses            0                       # Number of cache demand accesses (Unspecified)
system.caches.controllers3.forwardFromL1.m_buf_msgs    40.482649                       # Average number of messages in buffer (Unspecified)
system.caches.controllers3.forwardFromL1.m_stall_time  4969.874942                       # Average number of cycles messages are stalled in this MB (Unspecified)
system.caches.controllers3.mandatoryQueue.m_buf_msgs     0.052836                       # Average number of messages in buffer (Unspecified)
system.caches.controllers3.mandatoryQueue.m_stall_time   993.921752                       # Average number of cycles messages are stalled in this MB (Unspecified)
system.caches.controllers3.power_state.pwrStateResidencyTicks::UNDEFINED 856798207000                       # Cumulative time (in ticks) in various power states (Tick)
system.caches.controllers3.requestToL1.m_buf_msgs     0.002248                       # Average number of messages in buffer (Unspecified)
system.caches.controllers3.requestToL1.m_stall_time   993.921751                       # Average number of cycles messages are stalled in this MB (Unspecified)
system.caches.controllers3.responseFromL1.m_buf_msgs     0.001847                       # Average number of messages in buffer (Unspecified)
system.caches.controllers3.responseFromL1.m_stall_time  4969.608597                       # Average number of cycles messages are stalled in this MB (Unspecified)
system.caches.controllers3.responseToL1.m_buf_msgs     0.000035                       # Average number of messages in buffer (Unspecified)
system.caches.controllers3.responseToL1.m_stall_time   993.914680                       # Average number of cycles messages are stalled in this MB (Unspecified)
system.caches.controllers3.xyzStatsObject.power_state.pwrStateResidencyTicks::UNDEFINED 856798207000                       # Cumulative time (in ticks) in various power states (Tick)
system.caches.controllers4.cacheMemory.m_demand_hits            0                       # Number of cache demand hits (Unspecified)
system.caches.controllers4.cacheMemory.m_demand_misses            0                       # Number of cache demand misses (Unspecified)
system.caches.controllers4.cacheMemory.m_demand_accesses            0                       # Number of cache demand accesses (Unspecified)
system.caches.controllers4.forwardFromDir.m_buf_msgs     0.001316                       # Average number of messages in buffer (Unspecified)
system.caches.controllers4.forwardFromDir.m_stall_time  5098.164253                       # Average number of cycles messages are stalled in this MB (Unspecified)
system.caches.controllers4.forwardFromDir.m_stall_count        11216                       # Number of times messages were stalled (Unspecified)
system.caches.controllers4.forwardToL0.m_buf_msgs     0.000819                       # Average number of messages in buffer (Unspecified)
system.caches.controllers4.forwardToL0.m_stall_time   999.989362                       # Average number of cycles messages are stalled in this MB (Unspecified)
system.caches.controllers4.power_state.pwrStateResidencyTicks::UNDEFINED 856798207000                       # Cumulative time (in ticks) in various power states (Tick)
system.caches.controllers4.requestFromL0.m_buf_msgs     0.255059                       # Average number of messages in buffer (Unspecified)
system.caches.controllers4.requestFromL0.m_stall_time 147376.754432                       # Average number of cycles messages are stalled in this MB (Unspecified)
system.caches.controllers4.requestFromL0.m_stall_count      1022278                       # Number of times messages were stalled (Unspecified)
system.caches.controllers4.requestToDir.m_buf_msgs     0.002556                       # Average number of messages in buffer (Unspecified)
system.caches.controllers4.requestToDir.m_stall_time   999.999992                       # Average number of cycles messages are stalled in this MB (Unspecified)
system.caches.controllers4.responseFromDirOrSibling.m_buf_msgs     0.001396                       # Average number of messages in buffer (Unspecified)
system.caches.controllers4.responseFromDirOrSibling.m_stall_time 12908.221512                       # Average number of cycles messages are stalled in this MB (Unspecified)
system.caches.controllers4.responseFromL0.m_buf_msgs     0.000036                       # Average number of messages in buffer (Unspecified)
system.caches.controllers4.responseFromL0.m_stall_time  4999.998722                       # Average number of cycles messages are stalled in this MB (Unspecified)
system.caches.controllers4.responseToDirOrSibling.m_buf_msgs     0.000021                       # Average number of messages in buffer (Unspecified)
system.caches.controllers4.responseToDirOrSibling.m_stall_time   994.040079                       # Average number of cycles messages are stalled in this MB (Unspecified)
system.caches.controllers4.responseToL0.m_buf_msgs     0.001848                       # Average number of messages in buffer (Unspecified)
system.caches.controllers4.responseToL0.m_stall_time   999.999852                       # Average number of cycles messages are stalled in this MB (Unspecified)
system.caches.controllers4.xyzStatsObject.power_state.pwrStateResidencyTicks::UNDEFINED 856798207000                       # Cumulative time (in ticks) in various power states (Tick)
system.caches.controllers5.cacheMemory.m_demand_hits            0                       # Number of cache demand hits (Unspecified)
system.caches.controllers5.cacheMemory.m_demand_misses            0                       # Number of cache demand misses (Unspecified)
system.caches.controllers5.cacheMemory.m_demand_accesses            0                       # Number of cache demand accesses (Unspecified)
system.caches.controllers5.forwardFromDir.m_buf_msgs     0.001287                       # Average number of messages in buffer (Unspecified)
system.caches.controllers5.forwardFromDir.m_stall_time  5086.416972                       # Average number of cycles messages are stalled in this MB (Unspecified)
system.caches.controllers5.forwardFromDir.m_stall_count        10988                       # Number of times messages were stalled (Unspecified)
system.caches.controllers5.forwardToL0.m_buf_msgs     0.000794                       # Average number of messages in buffer (Unspecified)
system.caches.controllers5.forwardToL0.m_stall_time   994.026893                       # Average number of cycles messages are stalled in this MB (Unspecified)
system.caches.controllers5.power_state.pwrStateResidencyTicks::UNDEFINED 856798207000                       # Cumulative time (in ticks) in various power states (Tick)
system.caches.controllers5.requestFromL0.m_buf_msgs     0.255594                       # Average number of messages in buffer (Unspecified)
system.caches.controllers5.requestFromL0.m_stall_time 147715.335841                       # Average number of cycles messages are stalled in this MB (Unspecified)
system.caches.controllers5.requestFromL0.m_stall_count       997013                       # Number of times messages were stalled (Unspecified)
system.caches.controllers5.requestToDir.m_buf_msgs     0.002501                       # Average number of messages in buffer (Unspecified)
system.caches.controllers5.requestToDir.m_stall_time   994.040244                       # Average number of cycles messages are stalled in this MB (Unspecified)
system.caches.controllers5.responseFromDirOrSibling.m_buf_msgs     0.001368                       # Average number of messages in buffer (Unspecified)
system.caches.controllers5.responseFromDirOrSibling.m_stall_time 12830.825856                       # Average number of cycles messages are stalled in this MB (Unspecified)
system.caches.controllers5.responseFromL0.m_buf_msgs     0.000033                       # Average number of messages in buffer (Unspecified)
system.caches.controllers5.responseFromL0.m_stall_time  4972.856914                       # Average number of cycles messages are stalled in this MB (Unspecified)
system.caches.controllers5.responseToDirOrSibling.m_buf_msgs     0.000019                       # Average number of messages in buffer (Unspecified)
system.caches.controllers5.responseToDirOrSibling.m_stall_time   993.963013                       # Average number of cycles messages are stalled in this MB (Unspecified)
system.caches.controllers5.responseToL0.m_buf_msgs     0.001810                       # Average number of messages in buffer (Unspecified)
system.caches.controllers5.responseToL0.m_stall_time   994.040223                       # Average number of cycles messages are stalled in this MB (Unspecified)
system.caches.controllers5.xyzStatsObject.power_state.pwrStateResidencyTicks::UNDEFINED 856798207000                       # Cumulative time (in ticks) in various power states (Tick)
system.caches.controllers6.cacheMemory.m_demand_hits            0                       # Number of cache demand hits (Unspecified)
system.caches.controllers6.cacheMemory.m_demand_misses            0                       # Number of cache demand misses (Unspecified)
system.caches.controllers6.cacheMemory.m_demand_accesses            0                       # Number of cache demand accesses (Unspecified)
system.caches.controllers6.forwardFromDir.m_buf_msgs     0.001331                       # Average number of messages in buffer (Unspecified)
system.caches.controllers6.forwardFromDir.m_stall_time  5067.436576                       # Average number of cycles messages are stalled in this MB (Unspecified)
system.caches.controllers6.forwardFromDir.m_stall_count        13558                       # Number of times messages were stalled (Unspecified)
system.caches.controllers6.forwardToL0.m_buf_msgs     0.000812                       # Average number of messages in buffer (Unspecified)
system.caches.controllers6.forwardToL0.m_stall_time   993.957303                       # Average number of cycles messages are stalled in this MB (Unspecified)
system.caches.controllers6.power_state.pwrStateResidencyTicks::UNDEFINED 856798207000                       # Cumulative time (in ticks) in various power states (Tick)
system.caches.controllers6.requestFromL0.m_buf_msgs     0.254391                       # Average number of messages in buffer (Unspecified)
system.caches.controllers6.requestFromL0.m_stall_time 147210.721001                       # Average number of cycles messages are stalled in this MB (Unspecified)
system.caches.controllers6.requestFromL0.m_stall_count      1003430                       # Number of times messages were stalled (Unspecified)
system.caches.controllers6.requestToDir.m_buf_msgs     0.002521                       # Average number of messages in buffer (Unspecified)
system.caches.controllers6.requestToDir.m_stall_time   993.967908                       # Average number of cycles messages are stalled in this MB (Unspecified)
system.caches.controllers6.responseFromDirOrSibling.m_buf_msgs     0.001379                       # Average number of messages in buffer (Unspecified)
system.caches.controllers6.responseFromDirOrSibling.m_stall_time 12836.710238                       # Average number of cycles messages are stalled in this MB (Unspecified)
system.caches.controllers6.responseFromL0.m_buf_msgs     0.000037                       # Average number of messages in buffer (Unspecified)
system.caches.controllers6.responseFromL0.m_stall_time  4969.907300                       # Average number of cycles messages are stalled in this MB (Unspecified)
system.caches.controllers6.responseToDirOrSibling.m_buf_msgs     0.000028                       # Average number of messages in buffer (Unspecified)
system.caches.controllers6.responseToDirOrSibling.m_stall_time   993.956646                       # Average number of cycles messages are stalled in this MB (Unspecified)
system.caches.controllers6.responseToL0.m_buf_msgs     0.001919                       # Average number of messages in buffer (Unspecified)
system.caches.controllers6.responseToL0.m_stall_time   993.967779                       # Average number of cycles messages are stalled in this MB (Unspecified)
system.caches.controllers6.xyzStatsObject.power_state.pwrStateResidencyTicks::UNDEFINED 856798207000                       # Cumulative time (in ticks) in various power states (Tick)
system.caches.controllers7.cacheMemory.m_demand_hits            0                       # Number of cache demand hits (Unspecified)
system.caches.controllers7.cacheMemory.m_demand_misses            0                       # Number of cache demand misses (Unspecified)
system.caches.controllers7.cacheMemory.m_demand_accesses            0                       # Number of cache demand accesses (Unspecified)
system.caches.controllers7.forwardFromDir.m_buf_msgs     0.001321                       # Average number of messages in buffer (Unspecified)
system.caches.controllers7.forwardFromDir.m_stall_time  5065.754805                       # Average number of cycles messages are stalled in this MB (Unspecified)
system.caches.controllers7.forwardFromDir.m_stall_count        12705                       # Number of times messages were stalled (Unspecified)
system.caches.controllers7.forwardToL0.m_buf_msgs     0.000809                       # Average number of messages in buffer (Unspecified)
system.caches.controllers7.forwardToL0.m_stall_time   993.914686                       # Average number of cycles messages are stalled in this MB (Unspecified)
system.caches.controllers7.power_state.pwrStateResidencyTicks::UNDEFINED 856798207000                       # Cumulative time (in ticks) in various power states (Tick)
system.caches.controllers7.requestFromL0.m_buf_msgs     0.254457                       # Average number of messages in buffer (Unspecified)
system.caches.controllers7.requestFromL0.m_stall_time 147461.643109                       # Average number of cycles messages are stalled in this MB (Unspecified)
system.caches.controllers7.requestFromL0.m_stall_count      1003863                       # Number of times messages were stalled (Unspecified)
system.caches.controllers7.requestToDir.m_buf_msgs     0.002523                       # Average number of messages in buffer (Unspecified)
system.caches.controllers7.requestToDir.m_stall_time   993.921745                       # Average number of cycles messages are stalled in this MB (Unspecified)
system.caches.controllers7.responseFromDirOrSibling.m_buf_msgs     0.001379                       # Average number of messages in buffer (Unspecified)
system.caches.controllers7.responseFromDirOrSibling.m_stall_time 12833.790540                       # Average number of cycles messages are stalled in this MB (Unspecified)
system.caches.controllers7.responseFromL0.m_buf_msgs     0.000035                       # Average number of messages in buffer (Unspecified)
system.caches.controllers7.responseFromL0.m_stall_time  4969.742718                       # Average number of cycles messages are stalled in this MB (Unspecified)
system.caches.controllers7.responseToDirOrSibling.m_buf_msgs     0.000025                       # Average number of messages in buffer (Unspecified)
system.caches.controllers7.responseToDirOrSibling.m_stall_time   993.913601                       # Average number of cycles messages are stalled in this MB (Unspecified)
system.caches.controllers7.responseToL0.m_buf_msgs     0.001847                       # Average number of messages in buffer (Unspecified)
system.caches.controllers7.responseToL0.m_stall_time   993.921724                       # Average number of cycles messages are stalled in this MB (Unspecified)
system.caches.controllers7.xyzStatsObject.power_state.pwrStateResidencyTicks::UNDEFINED 856798207000                       # Cumulative time (in ticks) in various power states (Tick)
system.caches.controllers8.cacheMemory.m_demand_hits            0                       # Number of cache demand hits (Unspecified)
system.caches.controllers8.cacheMemory.m_demand_misses            0                       # Number of cache demand misses (Unspecified)
system.caches.controllers8.cacheMemory.m_demand_accesses            0                       # Number of cache demand accesses (Unspecified)
system.caches.controllers8.forwardToCache.m_buf_msgs     0.005497                       # Average number of messages in buffer (Unspecified)
system.caches.controllers8.forwardToCache.m_stall_time   999.995103                       # Average number of cycles messages are stalled in this MB (Unspecified)
system.caches.controllers8.power_state.pwrStateResidencyTicks::UNDEFINED 856798207000                       # Cumulative time (in ticks) in various power states (Tick)
system.caches.controllers8.requestFromCache.m_not_avail_count      2619102                       # Number of times this buffer did not have N slots available (Unspecified)
system.caches.controllers8.requestFromCache.m_buf_msgs     0.010102                       # Average number of messages in buffer (Unspecified)
system.caches.controllers8.requestFromCache.m_stall_time 295909.249093                       # Average number of cycles messages are stalled in this MB (Unspecified)
system.caches.controllers8.requestFromCache.m_occupancy     0.010102                       # Average occupancy of buffer capacity (Unspecified)
system.caches.controllers8.requestToMemory.m_buf_msgs     0.007464                       # Average number of messages in buffer (Unspecified)
system.caches.controllers8.requestToMemory.m_stall_time   999.999986                       # Average number of cycles messages are stalled in this MB (Unspecified)
system.caches.controllers8.responseFromMemory.m_buf_msgs     0.007464                       # Average number of messages in buffer (Unspecified)
system.caches.controllers8.responseFromMemory.m_stall_time   999.999868                       # Average number of cycles messages are stalled in this MB (Unspecified)
system.caches.controllers8.responseToCache.m_buf_msgs     0.048857                       # Average number of messages in buffer (Unspecified)
system.caches.controllers8.responseToCache.m_stall_time  8999.998718                       # Average number of cycles messages are stalled in this MB (Unspecified)
system.caches.controllers8.xyzCacheMemory.m_demand_hits            0                       # Number of cache demand hits (Unspecified)
system.caches.controllers8.xyzCacheMemory.m_demand_misses            0                       # Number of cache demand misses (Unspecified)
system.caches.controllers8.xyzCacheMemory.m_demand_accesses            0                       # Number of cache demand accesses (Unspecified)
system.caches.controllers8.xyzStatsObject.power_state.pwrStateResidencyTicks::UNDEFINED 856798207000                       # Cumulative time (in ticks) in various power states (Tick)
system.caches.network.msg_count.Control      41035062                       (Unspecified)
system.caches.network.msg_byte.Control      328280496                       (Unspecified)
system.caches.network.msg_count.Data         24805376                       (Unspecified)
system.caches.network.msg_byte.Data        1785987072                       (Unspecified)
system.caches.network.msg_count.Response_Data      3031740                       (Unspecified)
system.caches.network.msg_byte.Response_Data    218285280                       (Unspecified)
[...]
system.caches.controllers2.xyzStatsObjectlatency::underflows            0      0.00%      0.00% # Mem access latency (Unspecified)
system.caches.controllers2.xyzStatsObjectlatency::0-49999      1643869    100.00%    100.00% # Mem access latency (Unspecified)
system.caches.controllers2.xyzStatsObjectlatency::50000-99999            0      0.00%    100.00% # Mem access latency (Unspecified)
system.caches.controllers2.xyzStatsObjectlatency::100000            0      0.00%    100.00% # Mem access latency (Unspecified)
system.caches.controllers2.xyzStatsObjectlatency::overflows            0      0.00%    100.00% # Mem access latency (Unspecified)
system.caches.controllers2.xyzStatsObjectlatency::min_value           10                       # Mem access latency (Unspecified)
system.caches.controllers2.xyzStatsObjectlatency::max_value         1131                       # Mem access latency (Unspecified)
system.caches.controllers2.xyzStatsObjectlatency::total      1643869                       # Mem access latency (Unspecified)
system.caches.controllers3.xyzStatsObject.total_put            0                       # Total number of put (PutM + PutS) (Unspecified)
system.caches.controllers3.xyzStatsObject.total_put_as_wt            0                       # Total number of put as write through (Unspecified)
system.caches.controllers3.xyzStatsObject.total_putm            0                       # Total number of PutM (Unspecified)
system.caches.controllers3.xyzStatsObject.total_putm_as_wt            0                       # Total number of PutM as write through (Unspecified)
system.caches.controllers3.xyzStatsObject.total_puts            0                       # Total number of PutS (Unspecified)
system.caches.controllers3.xyzStatsObject.total_puts_as_wt            0                       # Total number of PutS as write through (Unspecified)
system.caches.controllers3.xyzStatsObject.total_repl            0                       # Total Replacement (Unspecified)
system.caches.controllers3.xyzStatsObject.total_repl_llc            0                       # Total Replacement of LLC line (Unspecified)
system.caches.controllers3.xyzStatsObject.total_repl_owned            0                       # Total Replacement of owned line (Unspecified)
system.caches.controllers3.xyzStatsObject.total_repl_shared            0                       # Total Replacement of shared line (Unspecified)
system.caches.controllers3.xyzStatsObject.wt_putRatio          nan                       # WT / Put (Unspecified)
system.caches.controllers3.xyzStatsObject.wt_putmRatio          nan                       # PutM WT / PutM (Unspecified)
system.caches.controllers3.xyzStatsObject.wt_putsRatio          nan                       # PutS WT / PutS (Unspecified)
system.caches.controllers3.xyzStatsObjectlatency::samples      1582862                       # Mem access latency (Unspecified)
system.caches.controllers3.xyzStatsObjectlatency::mean   474.437834                       # Mem access latency (Unspecified)
system.caches.controllers3.xyzStatsObjectlatency::stdev   359.663081                       # Mem access latency (Unspecified)
system.caches.controllers3.xyzStatsObjectlatency::underflows            0      0.00%      0.00% # Mem access latency (Unspecified)
system.caches.controllers3.xyzStatsObjectlatency::0-49999      1582862    100.00%    100.00% # Mem access latency (Unspecified)
system.caches.controllers3.xyzStatsObjectlatency::50000-99999            0      0.00%    100.00% # Mem access latency (Unspecified)
system.caches.controllers3.xyzStatsObjectlatency::100000            0      0.00%    100.00% # Mem access latency (Unspecified)
system.caches.controllers3.xyzStatsObjectlatency::overflows            0      0.00%    100.00% # Mem access latency (Unspecified)
system.caches.controllers3.xyzStatsObjectlatency::min_value           10                       # Mem access latency (Unspecified)
system.caches.controllers3.xyzStatsObjectlatency::max_value         1125                       # Mem access latency (Unspecified)
system.caches.controllers3.xyzStatsObjectlatency::total      1582862                       # Mem access latency (Unspecified)
system.caches.controllers4.xyzStatsObject.total_put            0                       # Total number of put (PutM + PutS) (Unspecified)
system.caches.controllers4.xyzStatsObject.total_put_as_wt            0                       # Total number of put as write through (Unspecified)
system.caches.controllers4.xyzStatsObject.total_putm            0                       # Total number of PutM (Unspecified)
system.caches.controllers4.xyzStatsObject.total_putm_as_wt            0                       # Total number of PutM as write through (Unspecified)
system.caches.controllers4.xyzStatsObject.total_puts            0                       # Total number of PutS (Unspecified)
system.caches.controllers4.xyzStatsObject.total_puts_as_wt            0                       # Total number of PutS as write through (Unspecified)
system.caches.controllers4.xyzStatsObject.total_repl            0                       # Total Replacement (Unspecified)
system.caches.controllers4.xyzStatsObject.total_repl_llc            0                       # Total Replacement of LLC line (Unspecified)
system.caches.controllers4.xyzStatsObject.total_repl_owned            0                       # Total Replacement of owned line (Unspecified)
system.caches.controllers4.xyzStatsObject.total_repl_shared            0                       # Total Replacement of shared line (Unspecified)
system.caches.controllers4.xyzStatsObject.wt_putRatio          nan                       # WT / Put (Unspecified)
system.caches.controllers4.xyzStatsObject.wt_putmRatio          nan                       # PutM WT / PutM (Unspecified)
system.caches.controllers4.xyzStatsObject.wt_putsRatio          nan                       # PutS WT / PutS (Unspecified)
system.caches.controllers4.xyzStatsObjectlatency::samples      1190846                       # Mem access latency (Unspecified)
system.caches.controllers4.xyzStatsObjectlatency::mean   437.466173                       # Mem access latency (Unspecified)
system.caches.controllers4.xyzStatsObjectlatency::stdev   179.168369                       # Mem access latency (Unspecified)
system.caches.controllers4.xyzStatsObjectlatency::underflows            0      0.00%      0.00% # Mem access latency (Unspecified)
system.caches.controllers4.xyzStatsObjectlatency::0-49999      1190846    100.00%    100.00% # Mem access latency (Unspecified)
system.caches.controllers4.xyzStatsObjectlatency::50000-99999            0      0.00%    100.00% # Mem access latency (Unspecified)
system.caches.controllers4.xyzStatsObjectlatency::100000            0      0.00%    100.00% # Mem access latency (Unspecified)
system.caches.controllers4.xyzStatsObjectlatency::overflows            0      0.00%    100.00% # Mem access latency (Unspecified)
system.caches.controllers4.xyzStatsObjectlatency::min_value           15                       # Mem access latency (Unspecified)
system.caches.controllers4.xyzStatsObjectlatency::max_value          732                       # Mem access latency (Unspecified)
system.caches.controllers4.xyzStatsObjectlatency::total      1190846                       # Mem access latency (Unspecified)
system.caches.controllers5.xyzStatsObject.total_put            0                       # Total number of put (PutM + PutS) (Unspecified)
system.caches.controllers5.xyzStatsObject.total_put_as_wt            0                       # Total number of put as write through (Unspecified)
system.caches.controllers5.xyzStatsObject.total_putm            0                       # Total number of PutM (Unspecified)
system.caches.controllers5.xyzStatsObject.total_putm_as_wt            0                       # Total number of PutM as write through (Unspecified)
system.caches.controllers5.xyzStatsObject.total_puts            0                       # Total number of PutS (Unspecified)
system.caches.controllers5.xyzStatsObject.total_puts_as_wt            0                       # Total number of PutS as write through (Unspecified)
system.caches.controllers5.xyzStatsObject.total_repl            0                       # Total Replacement (Unspecified)
system.caches.controllers5.xyzStatsObject.total_repl_llc            0                       # Total Replacement of LLC line (Unspecified)
system.caches.controllers5.xyzStatsObject.total_repl_owned            0                       # Total Replacement of owned line (Unspecified)
system.caches.controllers5.xyzStatsObject.total_repl_shared            0                       # Total Replacement of shared line (Unspecified)
system.caches.controllers5.xyzStatsObject.wt_putRatio          nan                       # WT / Put (Unspecified)
system.caches.controllers5.xyzStatsObject.wt_putmRatio          nan                       # PutM WT / PutM (Unspecified)
system.caches.controllers5.xyzStatsObject.wt_putsRatio          nan                       # PutS WT / PutS (Unspecified)
system.caches.controllers5.xyzStatsObjectlatency::samples      1166229                       # Mem access latency (Unspecified)
system.caches.controllers5.xyzStatsObjectlatency::mean   440.858495                       # Mem access latency (Unspecified)
system.caches.controllers5.xyzStatsObjectlatency::stdev   176.765344                       # Mem access latency (Unspecified)
system.caches.controllers5.xyzStatsObjectlatency::underflows            0      0.00%      0.00% # Mem access latency (Unspecified)
system.caches.controllers5.xyzStatsObjectlatency::0-49999      1166229    100.00%    100.00% # Mem access latency (Unspecified)
system.caches.controllers5.xyzStatsObjectlatency::50000-99999            0      0.00%    100.00% # Mem access latency (Unspecified)
system.caches.controllers5.xyzStatsObjectlatency::100000            0      0.00%    100.00% # Mem access latency (Unspecified)
system.caches.controllers5.xyzStatsObjectlatency::overflows            0      0.00%    100.00% # Mem access latency (Unspecified)
system.caches.controllers5.xyzStatsObjectlatency::min_value           15                       # Mem access latency (Unspecified)
system.caches.controllers5.xyzStatsObjectlatency::max_value          732                       # Mem access latency (Unspecified)
system.caches.controllers5.xyzStatsObjectlatency::total      1166229                       # Mem access latency (Unspecified)
system.caches.controllers6.xyzStatsObject.total_put            0                       # Total number of put (PutM + PutS) (Unspecified)
system.caches.controllers6.xyzStatsObject.total_put_as_wt            0                       # Total number of put as write through (Unspecified)
system.caches.controllers6.xyzStatsObject.total_putm            0                       # Total number of PutM (Unspecified)
system.caches.controllers6.xyzStatsObject.total_putm_as_wt            0                       # Total number of PutM as write through (Unspecified)
system.caches.controllers6.xyzStatsObject.total_puts            0                       # Total number of PutS (Unspecified)
system.caches.controllers6.xyzStatsObject.total_puts_as_wt            0                       # Total number of PutS as write through (Unspecified)
system.caches.controllers6.xyzStatsObject.total_repl            0                       # Total Replacement (Unspecified)
system.caches.controllers6.xyzStatsObject.total_repl_llc            0                       # Total Replacement of LLC line (Unspecified)
system.caches.controllers6.xyzStatsObject.total_repl_owned            0                       # Total Replacement of owned line (Unspecified)
system.caches.controllers6.xyzStatsObject.total_repl_shared            0                       # Total Replacement of shared line (Unspecified)
system.caches.controllers6.xyzStatsObject.wt_putRatio          nan                       # WT / Put (Unspecified)
system.caches.controllers6.xyzStatsObject.wt_putmRatio          nan                       # PutM WT / PutM (Unspecified)
system.caches.controllers6.xyzStatsObject.wt_putsRatio          nan                       # PutS WT / PutS (Unspecified)
system.caches.controllers6.xyzStatsObjectlatency::samples      1178491                       # Mem access latency (Unspecified)
system.caches.controllers6.xyzStatsObjectlatency::mean   439.299060                       # Mem access latency (Unspecified)
system.caches.controllers6.xyzStatsObjectlatency::stdev   177.618869                       # Mem access latency (Unspecified)
system.caches.controllers6.xyzStatsObjectlatency::underflows            0      0.00%      0.00% # Mem access latency (Unspecified)
system.caches.controllers6.xyzStatsObjectlatency::0-49999      1178491    100.00%    100.00% # Mem access latency (Unspecified)
system.caches.controllers6.xyzStatsObjectlatency::50000-99999            0      0.00%    100.00% # Mem access latency (Unspecified)
system.caches.controllers6.xyzStatsObjectlatency::100000            0      0.00%    100.00% # Mem access latency (Unspecified)
system.caches.controllers6.xyzStatsObjectlatency::overflows            0      0.00%    100.00% # Mem access latency (Unspecified)
system.caches.controllers6.xyzStatsObjectlatency::min_value           15                       # Mem access latency (Unspecified)
system.caches.controllers6.xyzStatsObjectlatency::max_value          739                       # Mem access latency (Unspecified)
system.caches.controllers6.xyzStatsObjectlatency::total      1178491                       # Mem access latency (Unspecified)
system.caches.controllers7.xyzStatsObject.total_put            0                       # Total number of put (PutM + PutS) (Unspecified)
system.caches.controllers7.xyzStatsObject.total_put_as_wt            0                       # Total number of put as write through (Unspecified)
system.caches.controllers7.xyzStatsObject.total_putm            0                       # Total number of PutM (Unspecified)
system.caches.controllers7.xyzStatsObject.total_putm_as_wt            0                       # Total number of PutM as write through (Unspecified)
system.caches.controllers7.xyzStatsObject.total_puts            0                       # Total number of PutS (Unspecified)
system.caches.controllers7.xyzStatsObject.total_puts_as_wt            0                       # Total number of PutS as write through (Unspecified)
system.caches.controllers7.xyzStatsObject.total_repl            0                       # Total Replacement (Unspecified)
system.caches.controllers7.xyzStatsObject.total_repl_llc            0                       # Total Replacement of LLC line (Unspecified)
system.caches.controllers7.xyzStatsObject.total_repl_owned            0                       # Total Replacement of owned line (Unspecified)
system.caches.controllers7.xyzStatsObject.total_repl_shared            0                       # Total Replacement of shared line (Unspecified)
system.caches.controllers7.xyzStatsObject.wt_putRatio          nan                       # WT / Put (Unspecified)
system.caches.controllers7.xyzStatsObject.wt_putmRatio          nan                       # PutM WT / PutM (Unspecified)
system.caches.controllers7.xyzStatsObject.wt_putsRatio          nan                       # PutS WT / PutS (Unspecified)
system.caches.controllers7.xyzStatsObjectlatency::samples      1178036                       # Mem access latency (Unspecified)
system.caches.controllers7.xyzStatsObjectlatency::mean   439.437257                       # Mem access latency (Unspecified)
system.caches.controllers7.xyzStatsObjectlatency::stdev   177.962105                       # Mem access latency (Unspecified)
system.caches.controllers7.xyzStatsObjectlatency::underflows            0      0.00%      0.00% # Mem access latency (Unspecified)
system.caches.controllers7.xyzStatsObjectlatency::0-49999      1178036    100.00%    100.00% # Mem access latency (Unspecified)
system.caches.controllers7.xyzStatsObjectlatency::50000-99999            0      0.00%    100.00% # Mem access latency (Unspecified)
system.caches.controllers7.xyzStatsObjectlatency::100000            0      0.00%    100.00% # Mem access latency (Unspecified)
system.caches.controllers7.xyzStatsObjectlatency::overflows            0      0.00%    100.00% # Mem access latency (Unspecified)
system.caches.controllers7.xyzStatsObjectlatency::min_value           15                       # Mem access latency (Unspecified)
system.caches.controllers7.xyzStatsObjectlatency::max_value          740                       # Mem access latency (Unspecified)
system.caches.controllers7.xyzStatsObjectlatency::total      1178036                       # Mem access latency (Unspecified)
system.caches.controllers8.xyzStatsObject.total_put      4260311                       # Total number of put (PutM + PutS) (Unspecified)
system.caches.controllers8.xyzStatsObject.total_put_as_wt      3259592                       # Total number of put as write through (Unspecified)
system.caches.controllers8.xyzStatsObject.total_putm      1309551                       # Total number of PutM (Unspecified)
system.caches.controllers8.xyzStatsObject.total_putm_as_wt      1139680                       # Total number of PutM as write through (Unspecified)
system.caches.controllers8.xyzStatsObject.total_puts      2950760                       # Total number of PutS (Unspecified)
system.caches.controllers8.xyzStatsObject.total_puts_as_wt      2119912                       # Total number of PutS as write through (Unspecified)
system.caches.controllers8.xyzStatsObject.total_repl            0                       # Total Replacement (Unspecified)
system.caches.controllers8.xyzStatsObject.total_repl_llc            0                       # Total Replacement of LLC line (Unspecified)
system.caches.controllers8.xyzStatsObject.total_repl_owned            0                       # Total Replacement of owned line (Unspecified)
system.caches.controllers8.xyzStatsObject.total_repl_shared            0                       # Total Replacement of shared line (Unspecified)
system.caches.controllers8.xyzStatsObject.wt_putRatio     0.765107                       # WT / Put (Unspecified)
system.caches.controllers8.xyzStatsObject.wt_putmRatio     0.870283                       # PutM WT / PutM (Unspecified)
system.caches.controllers8.xyzStatsObject.wt_putsRatio     0.718429                       # PutS WT / PutS (Unspecified)
system.caches.controllers8.xyzStatsObjectlatency::samples            0                       # Mem access latency (Unspecified)
system.caches.controllers8.xyzStatsObjectlatency::mean          nan                       # Mem access latency (Unspecified)
system.caches.controllers8.xyzStatsObjectlatency::stdev          nan                       # Mem access latency (Unspecified)
system.caches.controllers8.xyzStatsObjectlatency::underflows            0                       # Mem access latency (Unspecified)
system.caches.controllers8.xyzStatsObjectlatency::0-49999            0                       # Mem access latency (Unspecified)
system.caches.controllers8.xyzStatsObjectlatency::50000-99999            0                       # Mem access latency (Unspecified)
system.caches.controllers8.xyzStatsObjectlatency::100000            0                       # Mem access latency (Unspecified)
system.caches.controllers8.xyzStatsObjectlatency::overflows            0                       # Mem access latency (Unspecified)
system.caches.controllers8.xyzStatsObjectlatency::min_value            0                       # Mem access latency (Unspecified)
system.caches.controllers8.xyzStatsObjectlatency::max_value            0                       # Mem access latency (Unspecified)
system.caches.controllers8.xyzStatsObjectlatency::total            0                       # Mem access latency (Unspecified)

---------- End Simulation Statistics   ----------
