
---------- Begin Simulation Statistics ----------
simSeconds                                   0.689608                       # Number of seconds simulated (Second)
simTicks                                 689608447000                       # Number of ticks simulated (Tick)
finalTick                                689608447000                       # Number of ticks from beginning of simulation (restored from checkpoints and never reset) (Tick)
simFreq                                  1000000000000                       # The number of ticks per simulated second ((Tick/Second))
hostSeconds                                    183.94                       # Real time elapsed on the host (Second)
hostTickRate                               3749075744                       # The number of ticks simulated per host second (ticks/s) ((Tick/Second))
hostMemory                                    4952584                       # Number of bytes of host memory used (Byte)
simInsts                                     98168472                       # Number of instructions simulated (Count)
simOps                                      163599906                       # Number of ops (including micro ops) simulated (Count)
hostInstRate                                   533694                       # Simulator instruction rate (inst/s) ((Count/Second))
hostOpRate                                     889412                       # Simulator op (including micro ops) rate (op/s) ((Count/Second))
system.caches.m_outstandReqHistSeqr::bucket_size            1                       (Unspecified)
system.caches.m_outstandReqHistSeqr::max_bucket            9                       (Unspecified)
system.caches.m_outstandReqHistSeqr::samples    180762649                       (Unspecified)
system.caches.m_outstandReqHistSeqr::mean            1                       (Unspecified)
system.caches.m_outstandReqHistSeqr::gmean            1                       (Unspecified)
system.caches.m_outstandReqHistSeqr      |           0      0.00%      0.00% |   180762649    100.00%    100.00% |           0      0.00%    100.00% |           0      0.00%    100.00% |           0      0.00%    100.00% |           0      0.00%    100.00% |           0      0.00%    100.00% |           0      0.00%    100.00% |           0      0.00%    100.00% |           0      0.00%    100.00% (Unspecified)
system.caches.m_outstandReqHistSeqr::total    180762649                       (Unspecified)
system.caches.m_latencyHistSeqr::bucket_size          128                       (Unspecified)
system.caches.m_latencyHistSeqr::max_bucket         1279                       (Unspecified)
system.caches.m_latencyHistSeqr::samples    180762649                       (Unspecified)
system.caches.m_latencyHistSeqr::mean       13.967770                       (Unspecified)
system.caches.m_latencyHistSeqr::gmean       1.191331                       (Unspecified)
system.caches.m_latencyHistSeqr::stdev      92.939511                       (Unspecified)
system.caches.m_latencyHistSeqr          |   176752552     97.78%     97.78% |      675836      0.37%     98.16% |      487496      0.27%     98.43% |      498769      0.28%     98.70% |      594937      0.33%     99.03% |      707123      0.39%     99.42% |      604905      0.33%     99.76% |      429868      0.24%     99.99% |       11163      0.01%    100.00% |           0      0.00%    100.00% (Unspecified)
system.caches.m_latencyHistSeqr::total      180762649                       (Unspecified)
system.caches.m_hitLatencyHistSeqr::bucket_size            1                       (Unspecified)
system.caches.m_hitLatencyHistSeqr::max_bucket            9                       (Unspecified)
system.caches.m_hitLatencyHistSeqr::samples    174400074                       (Unspecified)
system.caches.m_hitLatencyHistSeqr::mean            1                       (Unspecified)
system.caches.m_hitLatencyHistSeqr::gmean            1                       (Unspecified)
system.caches.m_hitLatencyHistSeqr       |           0      0.00%      0.00% |   174400074    100.00%    100.00% |           0      0.00%    100.00% |           0      0.00%    100.00% |           0      0.00%    100.00% |           0      0.00%    100.00% |           0      0.00%    100.00% |           0      0.00%    100.00% |           0      0.00%    100.00% |           0      0.00%    100.00% (Unspecified)
system.caches.m_hitLatencyHistSeqr::total    174400074                       (Unspecified)
system.caches.m_missLatencyHistSeqr::bucket_size          128                       (Unspecified)
system.caches.m_missLatencyHistSeqr::max_bucket         1279                       (Unspecified)
system.caches.m_missLatencyHistSeqr::samples      6362575                       (Unspecified)
system.caches.m_missLatencyHistSeqr::mean   369.418202                       (Unspecified)
system.caches.m_missLatencyHistSeqr::gmean   144.577449                       (Unspecified)
system.caches.m_missLatencyHistSeqr::stdev   338.299767                       (Unspecified)
system.caches.m_missLatencyHistSeqr      |     2352478     36.97%     36.97% |      675836     10.62%     47.60% |      487496      7.66%     55.26% |      498769      7.84%     63.10% |      594937      9.35%     72.45% |      707123     11.11%     83.56% |      604905      9.51%     93.07% |      429868      6.76%     99.82% |       11163      0.18%    100.00% |           0      0.00%    100.00% (Unspecified)
system.caches.m_missLatencyHistSeqr::total      6362575                       (Unspecified)
system.caches.L0Cache_Controller.Load    |     8107296     25.13%     25.13% |     8006781     24.82%     49.94% |     8061208     24.98%     74.93% |     8090466     25.07%    100.00% (Unspecified)
system.caches.L0Cache_Controller.Load::total     32265751                       (Unspecified)
system.caches.L0Cache_Controller.Ifetch  |    35595448     25.18%     25.18% |    35056004     24.80%     49.98% |    35306126     24.98%     74.96% |    35397016     25.04%    100.00% (Unspecified)
system.caches.L0Cache_Controller.Ifetch::total    141354594                       (Unspecified)
system.caches.L0Cache_Controller.Store   |     1811405     25.36%     25.36% |     1771922     24.81%     50.17% |     1779379     24.91%     75.08% |     1779598     24.92%    100.00% (Unspecified)
system.caches.L0Cache_Controller.Store::total      7142304                       (Unspecified)
system.caches.L0Cache_Controller.Replacement |     1220846     24.80%     24.80% |     1199100     24.35%     49.15% |     1280936     26.02%     75.16% |     1222812     24.84%    100.00% (Unspecified)
system.caches.L0Cache_Controller.Replacement::total      4923694                       (Unspecified)
system.caches.L0Cache_Controller.Inv     |      702810     25.36%     25.36% |      681322     24.58%     49.94% |      694933     25.07%     75.01% |      692748     24.99%    100.00% (Unspecified)
system.caches.L0Cache_Controller.Inv::total      2771813                       (Unspecified)
system.caches.L0Cache_Controller.Data    |     1555057     24.92%     24.92% |     1521544     24.38%     49.30% |     1613792     25.86%     75.15% |     1550687     24.85%    100.00% (Unspecified)
system.caches.L0Cache_Controller.Data::total      6241080                       (Unspecified)
system.caches.L0Cache_Controller.ExData  |       29639     24.40%     24.40% |       30417     25.04%     49.43% |       29514     24.29%     73.72% |       31925     26.28%    100.00% (Unspecified)
system.caches.L0Cache_Controller.ExData::total       121495                       (Unspecified)
system.caches.L0Cache_Controller.I.Load  |     1117964     24.88%     24.88% |     1103673     24.56%     49.44% |     1143763     25.45%     74.89% |     1128444     25.11%    100.00% (Unspecified)
system.caches.L0Cache_Controller.I.Load::total      4493844                       (Unspecified)
system.caches.L0Cache_Controller.I.Ifetch |      120697     26.56%     26.56% |      107609     23.68%     50.25% |      113181     24.91%     75.16% |      112880     24.84%    100.00% (Unspecified)
system.caches.L0Cache_Controller.I.Ifetch::total       454367                       (Unspecified)
system.caches.L0Cache_Controller.I.Store |      172917     23.84%     23.84% |      168683     23.25%     47.09% |      214258     29.54%     76.63% |      169549     23.37%    100.00% (Unspecified)
system.caches.L0Cache_Controller.I.Store::total       725407                       (Unspecified)
system.caches.L0Cache_Controller.I.Inv   |      512138     25.33%     25.33% |      500513     24.75%     50.08% |      504724     24.96%     75.04% |      504743     24.96%    100.00% (Unspecified)
system.caches.L0Cache_Controller.I.Inv::total      2022118                       (Unspecified)
system.caches.L0Cache_Controller.IS_D.Data |     1209022     25.05%     25.05% |     1180865     24.47%     49.51% |     1227430     25.43%     74.94% |     1209399     25.06%    100.00% (Unspecified)
system.caches.L0Cache_Controller.IS_D.Data::total      4826716                       (Unspecified)
system.caches.L0Cache_Controller.IS_D.ExData |       29639     24.40%     24.40% |       30417     25.04%     49.43% |       29514     24.29%     73.72% |       31925     26.28%    100.00% (Unspecified)
system.caches.L0Cache_Controller.IS_D.ExData::total       121495                       (Unspecified)
system.caches.L0Cache_Controller.IM_D.Inv |           0      0.00%      0.00% |           1     33.33%     33.33% |           0      0.00%     33.33% |           2     66.67%    100.00% (Unspecified)
system.caches.L0Cache_Controller.IM_D.Inv::total            3                       (Unspecified)
system.caches.L0Cache_Controller.IM_D.Data |      346035     24.47%     24.47% |      340679     24.09%     48.55% |      386362     27.32%     75.87% |      341288     24.13%    100.00% (Unspecified)
system.caches.L0Cache_Controller.IM_D.Data::total      1414364                       (Unspecified)
system.caches.L0Cache_Controller.S.Load  |     5571065     25.11%     25.11% |     5519375     24.87%     49.98% |     5533036     24.93%     74.91% |     5566519     25.09%    100.00% (Unspecified)
system.caches.L0Cache_Controller.S.Load::total     22189995                       (Unspecified)
system.caches.L0Cache_Controller.S.Ifetch |    35474751     25.18%     25.18% |    34948395     24.80%     49.98% |    35192945     24.98%     74.96% |    35284136     25.04%    100.00% (Unspecified)
system.caches.L0Cache_Controller.S.Ifetch::total    140900227                       (Unspecified)
system.caches.L0Cache_Controller.S.Store |      173118     25.13%     25.13% |      171996     24.96%     50.09% |      172104     24.98%     75.07% |      171739     24.93%    100.00% (Unspecified)
system.caches.L0Cache_Controller.S.Store::total       688957                       (Unspecified)
system.caches.L0Cache_Controller.S.Replacement |      876354     24.97%     24.97% |      857433     24.43%     49.40% |      896392     25.54%     74.94% |      879533     25.06%    100.00% (Unspecified)
system.caches.L0Cache_Controller.S.Replacement::total      3509712                       (Unspecified)
system.caches.L0Cache_Controller.S.Inv   |      159503     25.40%     25.40% |      151394     24.11%     49.52% |      158892     25.31%     74.82% |      158084     25.18%    100.00% (Unspecified)
system.caches.L0Cache_Controller.S.Inv::total       627873                       (Unspecified)
system.caches.L0Cache_Controller.M.Load  |     1418267     25.41%     25.41% |     1383733     24.79%     50.20% |     1384409     24.80%     75.00% |     1395503     25.00%    100.00% (Unspecified)
system.caches.L0Cache_Controller.M.Load::total      5581912                       (Unspecified)
system.caches.L0Cache_Controller.M.Store |     1465370     25.58%     25.58% |     1431243     24.99%     50.57% |     1393017     24.32%     74.89% |     1438310     25.11%    100.00% (Unspecified)
system.caches.L0Cache_Controller.M.Store::total      5727940                       (Unspecified)
system.caches.L0Cache_Controller.M.Replacement |      344492     24.36%     24.36% |      341667     24.16%     48.53% |      384544     27.20%     75.72% |      343279     24.28%    100.00% (Unspecified)
system.caches.L0Cache_Controller.M.Replacement::total      1413982                       (Unspecified)
system.caches.L0Cache_Controller.M.Inv   |       31169     25.59%     25.59% |       29414     24.15%     49.73% |       31317     25.71%     75.44% |       29919     24.56%    100.00% (Unspecified)
system.caches.L0Cache_Controller.M.Inv::total       121819                       (Unspecified)
system.caches.L1Cache_Controller.Load    |     1238661     25.03%     25.03% |     1211282     24.48%     49.51% |     1256944     25.40%     74.91% |     1241324     25.09%    100.00% (Unspecified)
system.caches.L1Cache_Controller.Load::total      4948211                       (Unspecified)
system.caches.L1Cache_Controller.Store   |      346035     24.47%     24.47% |      340679     24.09%     48.55% |      386362     27.32%     75.87% |      341288     24.13%    100.00% (Unspecified)
system.caches.L1Cache_Controller.Store::total      1414364                       (Unspecified)
system.caches.L1Cache_Controller.PutM    |      344492     24.36%     24.36% |      341667     24.16%     48.53% |      384544     27.20%     75.72% |      343279     24.28%    100.00% (Unspecified)
system.caches.L1Cache_Controller.PutM::total      1413982                       (Unspecified)
system.caches.L1Cache_Controller.Replacement |     2041457     25.38%     25.38% |     1990474     24.75%     50.13% |     2004149     24.92%     75.05% |     2006181     24.95%    100.00% (Unspecified)
system.caches.L1Cache_Controller.Replacement::total      8042261                       (Unspecified)
system.caches.L1Cache_Controller.FwdGetM |       27035     23.62%     23.62% |       27039     23.62%     47.23% |       30996     27.07%     74.31% |       29412     25.69%    100.00% (Unspecified)
system.caches.L1Cache_Controller.FwdGetM::total       114482                       (Unspecified)
system.caches.L1Cache_Controller.Inv     |        3649     21.12%     21.12% |        3230     18.70%     39.82% |        5692     32.95%     72.77% |        4703     27.23%    100.00% (Unspecified)
system.caches.L1Cache_Controller.Inv::total        17274                       (Unspecified)
system.caches.L1Cache_Controller.PutAck  |      999641     25.36%     25.36% |      976317     24.77%     50.12% |      982057     24.91%     75.03% |      984279     24.97%    100.00% (Unspecified)
system.caches.L1Cache_Controller.PutAck::total      3942294                       (Unspecified)
system.caches.L1Cache_Controller.DataDirNoAcks |     1175607     25.28%     25.28% |     1149891     24.72%     50.00% |     1163758     25.02%     75.02% |     1161810     24.98%    100.00% (Unspecified)
system.caches.L1Cache_Controller.DataDirNoAcks::total      4651066                       (Unspecified)
system.caches.L1Cache_Controller.DataDirAcks |          10     19.23%     19.23% |          27     51.92%     71.15% |           4      7.69%     78.85% |          11     21.15%    100.00% (Unspecified)
system.caches.L1Cache_Controller.DataDirAcks::total           52                       (Unspecified)
system.caches.L1Cache_Controller.DataOwner |       16453     25.68%     25.68% |       17037     26.60%     52.28% |       14434     22.53%     74.81% |       16133     25.19%    100.00% (Unspecified)
system.caches.L1Cache_Controller.DataOwner::total        64057                       (Unspecified)
system.caches.L1Cache_Controller.InvAck  |        4753     27.60%     27.60% |        5482     31.83%     59.43% |        3126     18.15%     77.58% |        3861     22.42%    100.00% (Unspecified)
system.caches.L1Cache_Controller.InvAck::total        17222                       (Unspecified)
system.caches.L1Cache_Controller.LastInvAck |          10     19.23%     19.23% |          27     51.92%     71.15% |           4      7.69%     78.85% |          11     21.15%    100.00% (Unspecified)
system.caches.L1Cache_Controller.LastInvAck::total           52                       (Unspecified)
system.caches.L1Cache_Controller.WB_Data |       31169     25.59%     25.59% |       29414     24.15%     49.73% |       31317     25.71%     75.44% |       29919     24.56%    100.00% (Unspecified)
system.caches.L1Cache_Controller.WB_Data::total       121819                       (Unspecified)
system.caches.L1Cache_Controller.I.Load  |      857211     25.31%     25.31% |      836687     24.71%     50.02% |      846008     24.98%     75.00% |      846588     25.00%    100.00% (Unspecified)
system.caches.L1Cache_Controller.I.Load::total      3386494                       (Unspecified)
system.caches.L1Cache_Controller.I.Store |      161197     25.28%     25.28% |      157809     24.75%     50.04% |      159505     25.02%     75.05% |      159041     24.95%    100.00% (Unspecified)
system.caches.L1Cache_Controller.I.Store::total       637552                       (Unspecified)
system.caches.L1Cache_Controller.IS_D.FwdGetM |         150     23.15%     23.15% |         179     27.62%     50.77% |         183     28.24%     79.01% |         136     20.99%    100.00% (Unspecified)
system.caches.L1Cache_Controller.IS_D.FwdGetM::total          648                       (Unspecified)
system.caches.L1Cache_Controller.IS_D.DataDirNoAcks |      845409     25.30%     25.30% |      824461     24.67%     49.97% |      836394     25.03%     75.00% |      835249     25.00%    100.00% (Unspecified)
system.caches.L1Cache_Controller.IS_D.DataDirNoAcks::total      3341513                       (Unspecified)
system.caches.L1Cache_Controller.IS_D.DataOwner |       11802     26.24%     26.24% |       12226     27.18%     53.42% |        9614     21.37%     74.79% |       11339     25.21%    100.00% (Unspecified)
system.caches.L1Cache_Controller.IS_D.DataOwner::total        44981                       (Unspecified)
system.caches.L1Cache_Controller.IM_AD.FwdGetM |         238     22.43%     22.43% |         253     23.85%     46.28% |         297     27.99%     74.27% |         273     25.73%    100.00% (Unspecified)
system.caches.L1Cache_Controller.IM_AD.FwdGetM::total         1061                       (Unspecified)
system.caches.L1Cache_Controller.IM_AD.DataDirNoAcks |      156541     25.31%     25.31% |      152977     24.74%     50.05% |      154685     25.01%     75.06% |      154242     24.94%    100.00% (Unspecified)
system.caches.L1Cache_Controller.IM_AD.DataDirNoAcks::total       618445                       (Unspecified)
system.caches.L1Cache_Controller.IM_AD.DataDirAcks |           6     16.67%     16.67% |          22     61.11%     77.78% |           1      2.78%     80.56% |           7     19.44%    100.00% (Unspecified)
system.caches.L1Cache_Controller.IM_AD.DataDirAcks::total           36                       (Unspecified)
system.caches.L1Cache_Controller.IM_AD.DataOwner |        4651     24.38%     24.38% |        4811     25.22%     49.60% |        4820     25.27%     74.87% |        4794     25.13%    100.00% (Unspecified)
system.caches.L1Cache_Controller.IM_AD.DataOwner::total        19076                       (Unspecified)
system.caches.L1Cache_Controller.IM_AD.InvAck |        3857     27.50%     27.50% |        5058     36.07%     63.57% |        2076     14.80%     78.37% |        3033     21.63%    100.00% (Unspecified)
system.caches.L1Cache_Controller.IM_AD.InvAck::total        14024                       (Unspecified)
system.caches.L1Cache_Controller.IM_A.LastInvAck |           6     16.67%     16.67% |          22     61.11%     77.78% |           1      2.78%     80.56% |           7     19.44%    100.00% (Unspecified)
system.caches.L1Cache_Controller.IM_A.LastInvAck::total           36                       (Unspecified)
system.caches.L1Cache_Controller.S.Load  |      363613     24.48%     24.48% |      356404     24.00%     48.48% |      391036     26.33%     74.81% |      374150     25.19%    100.00% (Unspecified)
system.caches.L1Cache_Controller.S.Load::total      1485203                       (Unspecified)
system.caches.L1Cache_Controller.S.Store |      173662     25.13%     25.13% |      172459     24.95%     50.08% |      172683     24.99%     75.07% |      172325     24.93%    100.00% (Unspecified)
system.caches.L1Cache_Controller.S.Store::total       691129                       (Unspecified)
system.caches.L1Cache_Controller.S.Replacement |      668008     25.37%     25.37% |      648677     24.64%     50.01% |      657934     24.99%     75.00% |      658126     25.00%    100.00% (Unspecified)
system.caches.L1Cache_Controller.S.Replacement::total      2632745                       (Unspecified)
system.caches.L1Cache_Controller.S.Inv   |        3631     21.06%     21.06% |        3228     18.73%     39.79% |        5680     32.95%     72.74% |        4699     27.26%    100.00% (Unspecified)
system.caches.L1Cache_Controller.S.Inv::total        17238                       (Unspecified)
system.caches.L1Cache_Controller.SM_AD.Inv |           1     20.00%     20.00% |           1     20.00%     40.00% |           1     20.00%     60.00% |           2     40.00%    100.00% (Unspecified)
system.caches.L1Cache_Controller.SM_AD.Inv::total            5                       (Unspecified)
system.caches.L1Cache_Controller.SM_AD.DataDirNoAcks |      173657     25.13%     25.13% |      172453     24.95%     50.08% |      172679     24.99%     75.07% |      172319     24.93%    100.00% (Unspecified)
system.caches.L1Cache_Controller.SM_AD.DataDirNoAcks::total       691108                       (Unspecified)
system.caches.L1Cache_Controller.SM_AD.DataDirAcks |           4     25.00%     25.00% |           5     31.25%     56.25% |           3     18.75%     75.00% |           4     25.00%    100.00% (Unspecified)
system.caches.L1Cache_Controller.SM_AD.DataDirAcks::total           16                       (Unspecified)
system.caches.L1Cache_Controller.SM_AD.InvAck |         896     28.02%     28.02% |         424     13.26%     41.28% |        1050     32.83%     74.11% |         828     25.89%    100.00% (Unspecified)
system.caches.L1Cache_Controller.SM_AD.InvAck::total         3198                       (Unspecified)
system.caches.L1Cache_Controller.SM_A.LastInvAck |           4     25.00%     25.00% |           5     31.25%     56.25% |           3     18.75%     75.00% |           4     25.00%    100.00% (Unspecified)
system.caches.L1Cache_Controller.SM_A.LastInvAck::total           16                       (Unspecified)
system.caches.L1Cache_Controller.M.Load  |       17837     23.31%     23.31% |       18191     23.77%     47.09% |       19900     26.01%     73.10% |       20586     26.90%    100.00% (Unspecified)
system.caches.L1Cache_Controller.M.Load::total        76514                       (Unspecified)
system.caches.L1Cache_Controller.M.Store |       11176     13.04%     13.04% |       10411     12.15%     25.19% |       54174     63.23%     88.42% |        9922     11.58%    100.00% (Unspecified)
system.caches.L1Cache_Controller.M.Store::total        85683                       (Unspecified)
system.caches.L1Cache_Controller.M.Replacement |      331633     25.32%     25.32% |      327640     25.02%     50.34% |      324123     24.75%     75.09% |      326153     24.91%    100.00% (Unspecified)
system.caches.L1Cache_Controller.M.Replacement::total      1309549                       (Unspecified)
system.caches.L1Cache_Controller.M.FwdGetM |       15008     23.44%     23.44% |       14832     23.17%     46.61% |       17657     27.58%     74.18% |       16529     25.82%    100.00% (Unspecified)
system.caches.L1Cache_Controller.M.FwdGetM::total        64026                       (Unspecified)
system.caches.L1Cache_Controller.M_P.PutM |      344490     24.36%     24.36% |      341664     24.16%     48.53% |      384542     27.20%     75.72% |      343276     24.28%    100.00% (Unspecified)
system.caches.L1Cache_Controller.M_P.PutM::total      1413972                       (Unspecified)
system.caches.L1Cache_Controller.M_P.Replacement |       19726     26.78%     26.78% |       17764     24.12%     50.90% |       18609     25.27%     76.17% |       17548     23.83%    100.00% (Unspecified)
system.caches.L1Cache_Controller.M_P.Replacement::total        73647                       (Unspecified)
system.caches.L1Cache_Controller.M_P.FwdGetM |       11445     23.75%     23.75% |       11652     24.18%     47.94% |       12710     26.38%     74.32% |       12373     25.68%    100.00% (Unspecified)
system.caches.L1Cache_Controller.M_P.FwdGetM::total        48180                       (Unspecified)
system.caches.L1Cache_Controller.M_P.WB_Data |           0      0.00%      0.00% |           1     50.00%     50.00% |           0      0.00%     50.00% |           1     50.00%    100.00% (Unspecified)
system.caches.L1Cache_Controller.M_P.WB_Data::total            2                       (Unspecified)
system.caches.L1Cache_Controller.MP_D.PutM |           2     20.00%     20.00% |           3     30.00%     50.00% |           2     20.00%     70.00% |           3     30.00%    100.00% (Unspecified)
system.caches.L1Cache_Controller.MP_D.PutM::total           10                       (Unspecified)
system.caches.L1Cache_Controller.MP_D.Replacement |       19748     26.77%     26.77% |       17787     24.11%     50.88% |       18662     25.30%     76.18% |       17571     23.82%    100.00% (Unspecified)
system.caches.L1Cache_Controller.MP_D.Replacement::total        73768                       (Unspecified)
system.caches.L1Cache_Controller.MP_D.FwdGetM |         185     34.51%     34.51% |         121     22.57%     57.09% |         131     24.44%     81.53% |          99     18.47%    100.00% (Unspecified)
system.caches.L1Cache_Controller.MP_D.FwdGetM::total          536                       (Unspecified)
system.caches.L1Cache_Controller.MP_D.WB_Data |       31169     25.59%     25.59% |       29413     24.15%     49.73% |       31317     25.71%     75.44% |       29918     24.56%    100.00% (Unspecified)
system.caches.L1Cache_Controller.MP_D.WB_Data::total       121817                       (Unspecified)
system.caches.L1Cache_Controller.MI_A.Replacement |      332420     25.33%     25.33% |      328234     25.01%     50.34% |      324860     24.75%     75.09% |      326871     24.91%    100.00% (Unspecified)
system.caches.L1Cache_Controller.MI_A.Replacement::total      1312385                       (Unspecified)
system.caches.L1Cache_Controller.MI_A.FwdGetM |           9     29.03%     29.03% |           2      6.45%     35.48% |          18     58.06%     93.55% |           2      6.45%    100.00% (Unspecified)
system.caches.L1Cache_Controller.MI_A.FwdGetM::total           31                       (Unspecified)
system.caches.L1Cache_Controller.MI_A.PutAck |      331624     25.32%     25.32% |      327638     25.02%     50.34% |      324105     24.75%     75.09% |      326151     24.91%    100.00% (Unspecified)
system.caches.L1Cache_Controller.MI_A.PutAck::total      1309518                       (Unspecified)
system.caches.L1Cache_Controller.SI_A.Replacement |      669922     25.37%     25.37% |      650372     24.63%     50.01% |      659961     25.00%     75.00% |      659912     25.00%    100.00% (Unspecified)
system.caches.L1Cache_Controller.SI_A.Replacement::total      2640167                       (Unspecified)
system.caches.L1Cache_Controller.SI_A.Inv |          17     54.84%     54.84% |           1      3.23%     58.06% |          11     35.48%     93.55% |           2      6.45%    100.00% (Unspecified)
system.caches.L1Cache_Controller.SI_A.Inv::total           31                       (Unspecified)
system.caches.L1Cache_Controller.SI_A.PutAck |      667991     25.37%     25.37% |      648676     24.64%     50.01% |      657923     24.99%     75.00% |      658124     25.00%    100.00% (Unspecified)
system.caches.L1Cache_Controller.SI_A.PutAck::total      2632714                       (Unspecified)
system.caches.L1Cache_Controller.II_A.PutAck |          26     41.94%     41.94% |           3      4.84%     46.77% |          29     46.77%     93.55% |           4      6.45%    100.00% (Unspecified)
system.caches.L1Cache_Controller.II_A.PutAck::total           62                       (Unspecified)
system.caches.Directory_Controller.GetS       3386494      0.00%      0.00% (Unspecified)
system.caches.Directory_Controller.GetM       1328681      0.00%      0.00% (Unspecified)
system.caches.Directory_Controller.PutSNotLast       510373      0.00%      0.00% (Unspecified)
system.caches.Directory_Controller.PutSNotLastNonSharer           31      0.00%      0.00% (Unspecified)
system.caches.Directory_Controller.PutSLast       750415      0.00%      0.00% (Unspecified)
system.caches.Directory_Controller.PutSLastWT      1371926      0.00%      0.00% (Unspecified)
system.caches.Directory_Controller.PutMOwner       399355      0.00%      0.00% (Unspecified)
system.caches.Directory_Controller.PutMOwnerWT       910163      0.00%      0.00% (Unspecified)
system.caches.Directory_Controller.PutMNonOwner           31      0.00%      0.00% (Unspecified)
system.caches.Directory_Controller.Sync        208238      0.00%      0.00% (Unspecified)
system.caches.Directory_Controller.MemData      2416811      0.00%      0.00% (Unspecified)
system.caches.Directory_Controller.LastMemAck      2490327      0.00%      0.00% (Unspecified)
system.caches.Directory_Controller.I.GetS      1869445      0.00%      0.00% (Unspecified)
system.caches.Directory_Controller.I.GetM       547366      0.00%      0.00% (Unspecified)
system.caches.Directory_Controller.S.GetS       514191      0.00%      0.00% (Unspecified)
system.caches.Directory_Controller.S.GetM       704759      0.00%      0.00% (Unspecified)
system.caches.Directory_Controller.S.PutSNotLast       510373      0.00%      0.00% (Unspecified)
system.caches.Directory_Controller.S.PutSLast       750415      0.00%      0.00% (Unspecified)
system.caches.Directory_Controller.S.PutSLastWT      1371926      0.00%      0.00% (Unspecified)
system.caches.Directory_Controller.M.GetS        44981      0.00%      0.00% (Unspecified)
system.caches.Directory_Controller.M.GetM        19076      0.00%      0.00% (Unspecified)
system.caches.Directory_Controller.M.PutSNotLastNonSharer           31      0.00%      0.00% (Unspecified)
system.caches.Directory_Controller.M.PutMOwner       399355      0.00%      0.00% (Unspecified)
system.caches.Directory_Controller.M.PutMOwnerWT       910163      0.00%      0.00% (Unspecified)
system.caches.Directory_Controller.M.PutMNonOwner           31      0.00%      0.00% (Unspecified)
system.caches.Directory_Controller.LLCOnly.GetS       957877      0.00%      0.00% (Unspecified)
system.caches.Directory_Controller.LLCOnly.GetM        57480      0.00%      0.00% (Unspecified)
system.caches.Directory_Controller.LLCOnly.Sync       208238      0.00%      0.00% (Unspecified)
system.caches.Directory_Controller.LLCOnly_m.LastMemAck      1580164      0.00%      0.00% (Unspecified)
system.caches.Directory_Controller.S_m.MemData      1869445      0.00%      0.00% (Unspecified)
system.caches.Directory_Controller.M_m.MemData       547366      0.00%      0.00% (Unspecified)
system.caches.Directory_Controller.MI_m.LastMemAck       910163      0.00%      0.00% (Unspecified)
system.caches.RequestType.LD.latency_hist_seqr::bucket_size          128                       (Unspecified)
system.caches.RequestType.LD.latency_hist_seqr::max_bucket         1279                       (Unspecified)
system.caches.RequestType.LD.latency_hist_seqr::samples     32265751                       (Unspecified)
system.caches.RequestType.LD.latency_hist_seqr::mean    50.691458                       (Unspecified)
system.caches.RequestType.LD.latency_hist_seqr::gmean     1.951262                       (Unspecified)
system.caches.RequestType.LD.latency_hist_seqr::stdev   176.892672                       (Unspecified)
system.caches.RequestType.LD.latency_hist_seqr |    29648309     91.89%     91.89% |      317473      0.98%     92.87% |      236149      0.73%     93.60% |      334893      1.04%     94.64% |      486431      1.51%     96.15% |      582481      1.81%     97.95% |      433902      1.34%     99.30% |      217558      0.67%     99.97% |        8555      0.03%    100.00% |           0      0.00%    100.00% (Unspecified)
system.caches.RequestType.LD.latency_hist_seqr::total     32265751                       (Unspecified)
system.caches.RequestType.LD.hit_latency_hist_seqr::bucket_size            1                       (Unspecified)
system.caches.RequestType.LD.hit_latency_hist_seqr::max_bucket            9                       (Unspecified)
system.caches.RequestType.LD.hit_latency_hist_seqr::samples     27771907                       (Unspecified)
system.caches.RequestType.LD.hit_latency_hist_seqr::mean            1                       (Unspecified)
system.caches.RequestType.LD.hit_latency_hist_seqr::gmean            1                       (Unspecified)
system.caches.RequestType.LD.hit_latency_hist_seqr |           0      0.00%      0.00% |    27771907    100.00%    100.00% |           0      0.00%    100.00% |           0      0.00%    100.00% |           0      0.00%    100.00% |           0      0.00%    100.00% |           0      0.00%    100.00% |           0      0.00%    100.00% |           0      0.00%    100.00% |           0      0.00%    100.00% (Unspecified)
system.caches.RequestType.LD.hit_latency_hist_seqr::total     27771907                       (Unspecified)
system.caches.RequestType.LD.miss_latency_hist_seqr::bucket_size          128                       (Unspecified)
system.caches.RequestType.LD.miss_latency_hist_seqr::max_bucket         1279                       (Unspecified)
system.caches.RequestType.LD.miss_latency_hist_seqr::samples      4493844                       (Unspecified)
system.caches.RequestType.LD.miss_latency_hist_seqr::mean   357.784129                       (Unspecified)
system.caches.RequestType.LD.miss_latency_hist_seqr::gmean   121.468127                       (Unspecified)
system.caches.RequestType.LD.miss_latency_hist_seqr::stdev   339.268906                       (Unspecified)
system.caches.RequestType.LD.miss_latency_hist_seqr |     1876402     41.75%     41.75% |      317473      7.06%     48.82% |      236149      5.25%     54.07% |      334893      7.45%     61.53% |      486431     10.82%     72.35% |      582481     12.96%     85.31% |      433902      9.66%     94.97% |      217558      4.84%     99.81% |        8555      0.19%    100.00% |           0      0.00%    100.00% (Unspecified)
system.caches.RequestType.LD.miss_latency_hist_seqr::total      4493844                       (Unspecified)
system.caches.RequestType.ST.latency_hist_seqr::bucket_size          128                       (Unspecified)
system.caches.RequestType.ST.latency_hist_seqr::max_bucket         1279                       (Unspecified)
system.caches.RequestType.ST.latency_hist_seqr::samples      7028271                       (Unspecified)
system.caches.RequestType.ST.latency_hist_seqr::mean    85.655668                       (Unspecified)
system.caches.RequestType.ST.latency_hist_seqr::gmean     2.965594                       (Unspecified)
system.caches.RequestType.ST.latency_hist_seqr::stdev   230.479881                       (Unspecified)
system.caches.RequestType.ST.latency_hist_seqr |     5927355     84.34%     84.34% |      299311      4.26%     88.59% |      198403      2.82%     91.42% |      106861      1.52%     92.94% |       52871      0.75%     93.69% |       85391      1.21%     94.91% |      152453      2.17%     97.07% |      203067      2.89%     99.96% |        2559      0.04%    100.00% |           0      0.00%    100.00% (Unspecified)
system.caches.RequestType.ST.latency_hist_seqr::total      7028271                       (Unspecified)
system.caches.RequestType.ST.hit_latency_hist_seqr::bucket_size            1                       (Unspecified)
system.caches.RequestType.ST.hit_latency_hist_seqr::max_bucket            9                       (Unspecified)
system.caches.RequestType.ST.hit_latency_hist_seqr::samples      5635254                       (Unspecified)
system.caches.RequestType.ST.hit_latency_hist_seqr::mean            1                       (Unspecified)
system.caches.RequestType.ST.hit_latency_hist_seqr::gmean            1                       (Unspecified)
system.caches.RequestType.ST.hit_latency_hist_seqr |           0      0.00%      0.00% |     5635254    100.00%    100.00% |           0      0.00%    100.00% |           0      0.00%    100.00% |           0      0.00%    100.00% |           0      0.00%    100.00% |           0      0.00%    100.00% |           0      0.00%    100.00% |           0      0.00%    100.00% |           0      0.00%    100.00% (Unspecified)
system.caches.RequestType.ST.hit_latency_hist_seqr::total      5635254                       (Unspecified)
system.caches.RequestType.ST.miss_latency_hist_seqr::bucket_size          128                       (Unspecified)
system.caches.RequestType.ST.miss_latency_hist_seqr::max_bucket         1279                       (Unspecified)
system.caches.RequestType.ST.miss_latency_hist_seqr::samples      1393017                       (Unspecified)
system.caches.RequestType.ST.miss_latency_hist_seqr::mean   428.118244                       (Unspecified)
system.caches.RequestType.ST.miss_latency_hist_seqr::gmean   240.975631                       (Unspecified)
system.caches.RequestType.ST.miss_latency_hist_seqr::stdev   348.916081                       (Unspecified)
system.caches.RequestType.ST.miss_latency_hist_seqr |      292101     20.97%     20.97% |      299311     21.49%     42.46% |      198403     14.24%     56.70% |      106861      7.67%     64.37% |       52871      3.80%     68.16% |       85391      6.13%     74.29% |      152453     10.94%     85.24% |      203067     14.58%     99.82% |        2559      0.18%    100.00% |           0      0.00%    100.00% (Unspecified)
system.caches.RequestType.ST.miss_latency_hist_seqr::total      1393017                       (Unspecified)
system.caches.RequestType.IFETCH.latency_hist_seqr::bucket_size          128                       (Unspecified)
system.caches.RequestType.IFETCH.latency_hist_seqr::max_bucket         1279                       (Unspecified)
system.caches.RequestType.IFETCH.latency_hist_seqr::samples    141354594                       (Unspecified)
system.caches.RequestType.IFETCH.latency_hist_seqr::mean     2.014245                       (Unspecified)
system.caches.RequestType.IFETCH.latency_hist_seqr::gmean     1.016734                       (Unspecified)
system.caches.RequestType.IFETCH.latency_hist_seqr::stdev    23.498993                       (Unspecified)
system.caches.RequestType.IFETCH.latency_hist_seqr |   141070075     99.80%     99.80% |       54629      0.04%     99.84% |       50830      0.04%     99.87% |       56473      0.04%     99.91% |       55551      0.04%     99.95% |       39217      0.03%     99.98% |       18530      0.01%     99.99% |        9240      0.01%    100.00% |          49      0.00%    100.00% |           0      0.00%    100.00% (Unspecified)
system.caches.RequestType.IFETCH.latency_hist_seqr::total    141354594                       (Unspecified)
system.caches.RequestType.IFETCH.hit_latency_hist_seqr::bucket_size            1                       (Unspecified)
system.caches.RequestType.IFETCH.hit_latency_hist_seqr::max_bucket            9                       (Unspecified)
system.caches.RequestType.IFETCH.hit_latency_hist_seqr::samples    140900227                       (Unspecified)
system.caches.RequestType.IFETCH.hit_latency_hist_seqr::mean            1                       (Unspecified)
system.caches.RequestType.IFETCH.hit_latency_hist_seqr::gmean            1                       (Unspecified)
system.caches.RequestType.IFETCH.hit_latency_hist_seqr |           0      0.00%      0.00% |   140900227    100.00%    100.00% |           0      0.00%    100.00% |           0      0.00%    100.00% |           0      0.00%    100.00% |           0      0.00%    100.00% |           0      0.00%    100.00% |           0      0.00%    100.00% |           0      0.00%    100.00% |           0      0.00%    100.00% (Unspecified)
system.caches.RequestType.IFETCH.hit_latency_hist_seqr::total    140900227                       (Unspecified)
system.caches.RequestType.IFETCH.miss_latency_hist_seqr::bucket_size          128                       (Unspecified)
system.caches.RequestType.IFETCH.miss_latency_hist_seqr::max_bucket         1279                       (Unspecified)
system.caches.RequestType.IFETCH.miss_latency_hist_seqr::samples       454367                       (Unspecified)
system.caches.RequestType.IFETCH.miss_latency_hist_seqr::mean   316.533833                       (Unspecified)
system.caches.RequestType.IFETCH.miss_latency_hist_seqr::gmean   174.683967                       (Unspecified)
system.caches.RequestType.IFETCH.miss_latency_hist_seqr::stdev   269.351218                       (Unspecified)
system.caches.RequestType.IFETCH.miss_latency_hist_seqr |      169848     37.38%     37.38% |       54629     12.02%     49.40% |       50830     11.19%     60.59% |       56473     12.43%     73.02% |       55551     12.23%     85.25% |       39217      8.63%     93.88% |       18530      4.08%     97.96% |        9240      2.03%     99.99% |          49      0.01%    100.00% |           0      0.00%    100.00% (Unspecified)
system.caches.RequestType.IFETCH.miss_latency_hist_seqr::total       454367                       (Unspecified)
system.caches.RequestType.RMW_Read.latency_hist_seqr::bucket_size          128                       (Unspecified)
system.caches.RequestType.RMW_Read.latency_hist_seqr::max_bucket         1279                       (Unspecified)
system.caches.RequestType.RMW_Read.latency_hist_seqr::samples        13297                       (Unspecified)
system.caches.RequestType.RMW_Read.latency_hist_seqr::mean    27.032564                       (Unspecified)
system.caches.RequestType.RMW_Read.latency_hist_seqr::gmean     2.339197                       (Unspecified)
system.caches.RequestType.RMW_Read.latency_hist_seqr::stdev    93.239481                       (Unspecified)
system.caches.RequestType.RMW_Read.latency_hist_seqr |       12369     93.02%     93.02% |         454      3.41%     96.44% |         209      1.57%     98.01% |         126      0.95%     98.95% |          82      0.62%     99.57% |          34      0.26%     99.83% |          20      0.15%     99.98% |           3      0.02%    100.00% |           0      0.00%    100.00% |           0      0.00%    100.00% (Unspecified)
system.caches.RequestType.RMW_Read.latency_hist_seqr::total        13297                       (Unspecified)
system.caches.RequestType.RMW_Read.hit_latency_hist_seqr::bucket_size            1                       (Unspecified)
system.caches.RequestType.RMW_Read.hit_latency_hist_seqr::max_bucket            9                       (Unspecified)
system.caches.RequestType.RMW_Read.hit_latency_hist_seqr::samples        10374                       (Unspecified)
system.caches.RequestType.RMW_Read.hit_latency_hist_seqr::mean            1                       (Unspecified)
system.caches.RequestType.RMW_Read.hit_latency_hist_seqr::gmean            1                       (Unspecified)
system.caches.RequestType.RMW_Read.hit_latency_hist_seqr |           0      0.00%      0.00% |       10374    100.00%    100.00% |           0      0.00%    100.00% |           0      0.00%    100.00% |           0      0.00%    100.00% |           0      0.00%    100.00% |           0      0.00%    100.00% |           0      0.00%    100.00% |           0      0.00%    100.00% |           0      0.00%    100.00% (Unspecified)
system.caches.RequestType.RMW_Read.hit_latency_hist_seqr::total        10374                       (Unspecified)
system.caches.RequestType.RMW_Read.miss_latency_hist_seqr::bucket_size          128                       (Unspecified)
system.caches.RequestType.RMW_Read.miss_latency_hist_seqr::max_bucket         1279                       (Unspecified)
system.caches.RequestType.RMW_Read.miss_latency_hist_seqr::samples         2923                       (Unspecified)
system.caches.RequestType.RMW_Read.miss_latency_hist_seqr::mean   119.424564                       (Unspecified)
system.caches.RequestType.RMW_Read.miss_latency_hist_seqr::gmean    47.744072                       (Unspecified)
system.caches.RequestType.RMW_Read.miss_latency_hist_seqr::stdev   169.154766                       (Unspecified)
system.caches.RequestType.RMW_Read.miss_latency_hist_seqr |        1995     68.25%     68.25% |         454     15.53%     83.78% |         209      7.15%     90.93% |         126      4.31%     95.24% |          82      2.81%     98.05% |          34      1.16%     99.21% |          20      0.68%     99.90% |           3      0.10%    100.00% |           0      0.00%    100.00% |           0      0.00%    100.00% (Unspecified)
system.caches.RequestType.RMW_Read.miss_latency_hist_seqr::total         2923                       (Unspecified)
system.caches.RequestType.Locked_RMW_Read.latency_hist_seqr::bucket_size           64                       (Unspecified)
system.caches.RequestType.Locked_RMW_Read.latency_hist_seqr::max_bucket          639                       (Unspecified)
system.caches.RequestType.Locked_RMW_Read.latency_hist_seqr::samples        50368                       (Unspecified)
system.caches.RequestType.Locked_RMW_Read.latency_hist_seqr::mean    41.877839                       (Unspecified)
system.caches.RequestType.Locked_RMW_Read.latency_hist_seqr::gmean     4.888170                       (Unspecified)
system.caches.RequestType.Locked_RMW_Read.latency_hist_seqr::stdev    83.693382                       (Unspecified)
system.caches.RequestType.Locked_RMW_Read.latency_hist_seqr |       42584     84.55%     84.55% |        1492      2.96%     87.51% |        2268      4.50%     92.01% |        1701      3.38%     95.39% |        1029      2.04%     97.43% |         876      1.74%     99.17% |         289      0.57%     99.74% |         127      0.25%    100.00% |           2      0.00%    100.00% |           0      0.00%    100.00% (Unspecified)
system.caches.RequestType.Locked_RMW_Read.latency_hist_seqr::total        50368                       (Unspecified)
system.caches.RequestType.Locked_RMW_Read.hit_latency_hist_seqr::bucket_size            1                       (Unspecified)
system.caches.RequestType.Locked_RMW_Read.hit_latency_hist_seqr::max_bucket            9                       (Unspecified)
system.caches.RequestType.Locked_RMW_Read.hit_latency_hist_seqr::samples        31944                       (Unspecified)
system.caches.RequestType.Locked_RMW_Read.hit_latency_hist_seqr::mean            1                       (Unspecified)
system.caches.RequestType.Locked_RMW_Read.hit_latency_hist_seqr::gmean            1                       (Unspecified)
system.caches.RequestType.Locked_RMW_Read.hit_latency_hist_seqr |           0      0.00%      0.00% |       31944    100.00%    100.00% |           0      0.00%    100.00% |           0      0.00%    100.00% |           0      0.00%    100.00% |           0      0.00%    100.00% |           0      0.00%    100.00% |           0      0.00%    100.00% |           0      0.00%    100.00% |           0      0.00%    100.00% (Unspecified)
system.caches.RequestType.Locked_RMW_Read.hit_latency_hist_seqr::total        31944                       (Unspecified)
system.caches.RequestType.Locked_RMW_Read.miss_latency_hist_seqr::bucket_size           64                       (Unspecified)
system.caches.RequestType.Locked_RMW_Read.miss_latency_hist_seqr::max_bucket          639                       (Unspecified)
system.caches.RequestType.Locked_RMW_Read.miss_latency_hist_seqr::samples        18424                       (Unspecified)
system.caches.RequestType.Locked_RMW_Read.miss_latency_hist_seqr::mean   112.752877                       (Unspecified)
system.caches.RequestType.Locked_RMW_Read.miss_latency_hist_seqr::gmean    76.560674                       (Unspecified)
system.caches.RequestType.Locked_RMW_Read.miss_latency_hist_seqr::stdev   105.967188                       (Unspecified)
system.caches.RequestType.Locked_RMW_Read.miss_latency_hist_seqr |       10640     57.75%     57.75% |        1492      8.10%     65.85% |        2268     12.31%     78.16% |        1701      9.23%     87.39% |        1029      5.59%     92.98% |         876      4.75%     97.73% |         289      1.57%     99.30% |         127      0.69%     99.99% |           2      0.01%    100.00% |           0      0.00%    100.00% (Unspecified)
system.caches.RequestType.Locked_RMW_Read.miss_latency_hist_seqr::total        18424                       (Unspecified)
system.caches.RequestType.Locked_RMW_Write.latency_hist_seqr::bucket_size            1                       (Unspecified)
system.caches.RequestType.Locked_RMW_Write.latency_hist_seqr::max_bucket            9                       (Unspecified)
system.caches.RequestType.Locked_RMW_Write.latency_hist_seqr::samples        50368                       (Unspecified)
system.caches.RequestType.Locked_RMW_Write.latency_hist_seqr::mean            1                       (Unspecified)
system.caches.RequestType.Locked_RMW_Write.latency_hist_seqr::gmean            1                       (Unspecified)
system.caches.RequestType.Locked_RMW_Write.latency_hist_seqr |           0      0.00%      0.00% |       50368    100.00%    100.00% |           0      0.00%    100.00% |           0      0.00%    100.00% |           0      0.00%    100.00% |           0      0.00%    100.00% |           0      0.00%    100.00% |           0      0.00%    100.00% |           0      0.00%    100.00% |           0      0.00%    100.00% (Unspecified)
system.caches.RequestType.Locked_RMW_Write.latency_hist_seqr::total        50368                       (Unspecified)
system.caches.RequestType.Locked_RMW_Write.hit_latency_hist_seqr::bucket_size            1                       (Unspecified)
system.caches.RequestType.Locked_RMW_Write.hit_latency_hist_seqr::max_bucket            9                       (Unspecified)
system.caches.RequestType.Locked_RMW_Write.hit_latency_hist_seqr::samples        50368                       (Unspecified)
system.caches.RequestType.Locked_RMW_Write.hit_latency_hist_seqr::mean            1                       (Unspecified)
system.caches.RequestType.Locked_RMW_Write.hit_latency_hist_seqr::gmean            1                       (Unspecified)
system.caches.RequestType.Locked_RMW_Write.hit_latency_hist_seqr |           0      0.00%      0.00% |       50368    100.00%    100.00% |           0      0.00%    100.00% |           0      0.00%    100.00% |           0      0.00%    100.00% |           0      0.00%    100.00% |           0      0.00%    100.00% |           0      0.00%    100.00% |           0      0.00%    100.00% |           0      0.00%    100.00% (Unspecified)
system.caches.RequestType.Locked_RMW_Write.hit_latency_hist_seqr::total        50368                       (Unspecified)
system.caches.controllers0.DCache.m_demand_hits            0                       # Number of cache demand hits (Unspecified)
system.caches.controllers0.DCache.m_demand_misses            0                       # Number of cache demand misses (Unspecified)
system.caches.controllers0.DCache.m_demand_accesses            0                       # Number of cache demand accesses (Unspecified)
system.caches.controllers0.ICache.m_demand_hits            0                       # Number of cache demand hits (Unspecified)
system.caches.controllers0.ICache.m_demand_misses            0                       # Number of cache demand misses (Unspecified)
system.caches.controllers0.ICache.m_demand_accesses            0                       # Number of cache demand accesses (Unspecified)
system.caches.controllers0.forwardFromL1.m_buf_msgs    64.722913                       # Average number of messages in buffer (Unspecified)
system.caches.controllers0.forwardFromL1.m_stall_time  5000.413175                       # Average number of cycles messages are stalled in this MB (Unspecified)
system.caches.controllers0.mandatoryQueue.m_buf_msgs     0.066000                       # Average number of messages in buffer (Unspecified)
system.caches.controllers0.mandatoryQueue.m_stall_time   999.999999                       # Average number of cycles messages are stalled in this MB (Unspecified)
system.caches.controllers0.power_state.pwrStateResidencyTicks::UNDEFINED 689608447000                       # Cumulative time (in ticks) in various power states (Tick)
system.caches.controllers0.requestToL1.m_buf_msgs     0.002798                       # Average number of messages in buffer (Unspecified)
system.caches.controllers0.requestToL1.m_stall_time   999.999997                       # Average number of cycles messages are stalled in this MB (Unspecified)
system.caches.controllers0.responseFromL1.m_buf_msgs     0.002298                       # Average number of messages in buffer (Unspecified)
system.caches.controllers0.responseFromL1.m_stall_time  4999.999050                       # Average number of cycles messages are stalled in this MB (Unspecified)
system.caches.controllers0.responseToL1.m_buf_msgs     0.000045                       # Average number of messages in buffer (Unspecified)
system.caches.controllers0.responseToL1.m_stall_time   999.976839                       # Average number of cycles messages are stalled in this MB (Unspecified)
system.caches.controllers0.xyzStatsObject.power_state.pwrStateResidencyTicks::UNDEFINED 689608447000                       # Cumulative time (in ticks) in various power states (Tick)
system.caches.controllers1.DCache.m_demand_hits            0                       # Number of cache demand hits (Unspecified)
system.caches.controllers1.DCache.m_demand_misses            0                       # Number of cache demand misses (Unspecified)
system.caches.controllers1.DCache.m_demand_accesses            0                       # Number of cache demand accesses (Unspecified)
system.caches.controllers1.ICache.m_demand_hits            0                       # Number of cache demand hits (Unspecified)
system.caches.controllers1.ICache.m_demand_misses            0                       # Number of cache demand misses (Unspecified)
system.caches.controllers1.ICache.m_demand_accesses            0                       # Number of cache demand accesses (Unspecified)
system.caches.controllers1.forwardFromL1.m_buf_msgs    96.174382                       # Average number of messages in buffer (Unspecified)
system.caches.controllers1.forwardFromL1.m_stall_time  4963.346750                       # Average number of cycles messages are stalled in this MB (Unspecified)
system.caches.controllers1.forwardFromL1.m_stall_count            1                       # Number of times messages were stalled (Unspecified)
system.caches.controllers1.mandatoryQueue.m_buf_msgs     0.065015                       # Average number of messages in buffer (Unspecified)
system.caches.controllers1.mandatoryQueue.m_stall_time   992.595360                       # Average number of cycles messages are stalled in this MB (Unspecified)
system.caches.controllers1.power_state.pwrStateResidencyTicks::UNDEFINED 689608447000                       # Cumulative time (in ticks) in various power states (Tick)
system.caches.controllers1.requestToL1.m_buf_msgs     0.002746                       # Average number of messages in buffer (Unspecified)
system.caches.controllers1.requestToL1.m_stall_time   992.595359                       # Average number of cycles messages are stalled in this MB (Unspecified)
system.caches.controllers1.responseFromL1.m_buf_msgs     0.002250                       # Average number of messages in buffer (Unspecified)
system.caches.controllers1.responseFromL1.m_stall_time  4962.976599                       # Average number of cycles messages are stalled in this MB (Unspecified)
system.caches.controllers1.responseToL1.m_buf_msgs     0.000043                       # Average number of messages in buffer (Unspecified)
system.caches.controllers1.responseToL1.m_stall_time   992.541669                       # Average number of cycles messages are stalled in this MB (Unspecified)
system.caches.controllers1.xyzStatsObject.power_state.pwrStateResidencyTicks::UNDEFINED 689608447000                       # Cumulative time (in ticks) in various power states (Tick)
system.caches.controllers2.DCache.m_demand_hits            0                       # Number of cache demand hits (Unspecified)
system.caches.controllers2.DCache.m_demand_misses            0                       # Number of cache demand misses (Unspecified)
system.caches.controllers2.DCache.m_demand_accesses            0                       # Number of cache demand accesses (Unspecified)
system.caches.controllers2.ICache.m_demand_hits            0                       # Number of cache demand hits (Unspecified)
system.caches.controllers2.ICache.m_demand_misses            0                       # Number of cache demand misses (Unspecified)
system.caches.controllers2.ICache.m_demand_accesses            0                       # Number of cache demand accesses (Unspecified)
system.caches.controllers2.forwardFromL1.m_buf_msgs    87.181836                       # Average number of messages in buffer (Unspecified)
system.caches.controllers2.forwardFromL1.m_stall_time  4963.098779                       # Average number of cycles messages are stalled in this MB (Unspecified)
system.caches.controllers2.mandatoryQueue.m_buf_msgs     0.065467                       # Average number of messages in buffer (Unspecified)
system.caches.controllers2.mandatoryQueue.m_stall_time   992.514194                       # Average number of cycles messages are stalled in this MB (Unspecified)
system.caches.controllers2.power_state.pwrStateResidencyTicks::UNDEFINED 689608447000                       # Cumulative time (in ticks) in various power states (Tick)
system.caches.controllers2.requestToL1.m_buf_msgs     0.002941                       # Average number of messages in buffer (Unspecified)
system.caches.controllers2.requestToL1.m_stall_time   992.514193                       # Average number of cycles messages are stalled in this MB (Unspecified)
system.caches.controllers2.responseFromL1.m_buf_msgs     0.002383                       # Average number of messages in buffer (Unspecified)
system.caches.controllers2.responseFromL1.m_stall_time  4962.570767                       # Average number of cycles messages are stalled in this MB (Unspecified)
system.caches.controllers2.responseToL1.m_buf_msgs     0.000045                       # Average number of messages in buffer (Unspecified)
system.caches.controllers2.responseToL1.m_stall_time   992.502847                       # Average number of cycles messages are stalled in this MB (Unspecified)
system.caches.controllers2.xyzStatsObject.power_state.pwrStateResidencyTicks::UNDEFINED 689608447000                       # Cumulative time (in ticks) in various power states (Tick)
system.caches.controllers3.DCache.m_demand_hits            0                       # Number of cache demand hits (Unspecified)
system.caches.controllers3.DCache.m_demand_misses            0                       # Number of cache demand misses (Unspecified)
system.caches.controllers3.DCache.m_demand_accesses            0                       # Number of cache demand accesses (Unspecified)
system.caches.controllers3.ICache.m_demand_hits            0                       # Number of cache demand hits (Unspecified)
system.caches.controllers3.ICache.m_demand_misses            0                       # Number of cache demand misses (Unspecified)
system.caches.controllers3.ICache.m_demand_accesses            0                       # Number of cache demand accesses (Unspecified)
system.caches.controllers3.forwardFromL1.m_buf_msgs    62.313054                       # Average number of messages in buffer (Unspecified)
system.caches.controllers3.forwardFromL1.m_stall_time  4962.778178                       # Average number of cycles messages are stalled in this MB (Unspecified)
system.caches.controllers3.forwardFromL1.m_stall_count            2                       # Number of times messages were stalled (Unspecified)
system.caches.controllers3.mandatoryQueue.m_buf_msgs     0.065642                       # Average number of messages in buffer (Unspecified)
system.caches.controllers3.mandatoryQueue.m_stall_time   992.465580                       # Average number of cycles messages are stalled in this MB (Unspecified)
system.caches.controllers3.power_state.pwrStateResidencyTicks::UNDEFINED 689608447000                       # Cumulative time (in ticks) in various power states (Tick)
system.caches.controllers3.requestToL1.m_buf_msgs     0.002793                       # Average number of messages in buffer (Unspecified)
system.caches.controllers3.requestToL1.m_stall_time   992.465578                       # Average number of cycles messages are stalled in this MB (Unspecified)
system.caches.controllers3.responseFromL1.m_buf_msgs     0.002295                       # Average number of messages in buffer (Unspecified)
system.caches.controllers3.responseFromL1.m_stall_time  4962.327695                       # Average number of cycles messages are stalled in this MB (Unspecified)
system.caches.controllers3.responseToL1.m_buf_msgs     0.000043                       # Average number of messages in buffer (Unspecified)
system.caches.controllers3.responseToL1.m_stall_time   992.458835                       # Average number of cycles messages are stalled in this MB (Unspecified)
system.caches.controllers3.xyzStatsObject.power_state.pwrStateResidencyTicks::UNDEFINED 689608447000                       # Cumulative time (in ticks) in various power states (Tick)
system.caches.controllers4.cacheMemory.m_demand_hits            0                       # Number of cache demand hits (Unspecified)
system.caches.controllers4.cacheMemory.m_demand_misses            0                       # Number of cache demand misses (Unspecified)
system.caches.controllers4.cacheMemory.m_demand_accesses            0                       # Number of cache demand accesses (Unspecified)
system.caches.controllers4.forwardFromDir.m_buf_msgs     0.001648                       # Average number of messages in buffer (Unspecified)
system.caches.controllers4.forwardFromDir.m_stall_time  5096.280474                       # Average number of cycles messages are stalled in this MB (Unspecified)
system.caches.controllers4.forwardFromDir.m_stall_count        12018                       # Number of times messages were stalled (Unspecified)
system.caches.controllers4.forwardToL0.m_buf_msgs     0.001019                       # Average number of messages in buffer (Unspecified)
system.caches.controllers4.forwardToL0.m_stall_time   999.986782                       # Average number of cycles messages are stalled in this MB (Unspecified)
system.caches.controllers4.power_state.pwrStateResidencyTicks::UNDEFINED 689608447000                       # Cumulative time (in ticks) in various power states (Tick)
system.caches.controllers4.requestFromL0.m_buf_msgs     0.242615                       # Average number of messages in buffer (Unspecified)
system.caches.controllers4.requestFromL0.m_stall_time 128938.731739                       # Average number of cycles messages are stalled in this MB (Unspecified)
system.caches.controllers4.requestFromL0.m_stall_count      1022090                       # Number of times messages were stalled (Unspecified)
system.caches.controllers4.requestToDir.m_buf_msgs     0.003178                       # Average number of messages in buffer (Unspecified)
system.caches.controllers4.requestToDir.m_stall_time   999.999990                       # Average number of cycles messages are stalled in this MB (Unspecified)
system.caches.controllers4.responseFromDirOrSibling.m_buf_msgs     0.001736                       # Average number of messages in buffer (Unspecified)
system.caches.controllers4.responseFromDirOrSibling.m_stall_time 12917.860394                       # Average number of cycles messages are stalled in this MB (Unspecified)
system.caches.controllers4.responseFromL0.m_buf_msgs     0.000045                       # Average number of messages in buffer (Unspecified)
system.caches.controllers4.responseFromL0.m_stall_time  5000.156397                       # Average number of cycles messages are stalled in this MB (Unspecified)
system.caches.controllers4.responseToDirOrSibling.m_buf_msgs     0.000027                       # Average number of messages in buffer (Unspecified)
system.caches.controllers4.responseToDirOrSibling.m_stall_time   992.595146                       # Average number of cycles messages are stalled in this MB (Unspecified)
system.caches.controllers4.responseToL0.m_buf_msgs     0.002298                       # Average number of messages in buffer (Unspecified)
system.caches.controllers4.responseToL0.m_stall_time   999.999816                       # Average number of cycles messages are stalled in this MB (Unspecified)
system.caches.controllers4.xyzStatsObject.power_state.pwrStateResidencyTicks::UNDEFINED 689608447000                       # Cumulative time (in ticks) in various power states (Tick)
system.caches.controllers5.cacheMemory.m_demand_hits            0                       # Number of cache demand hits (Unspecified)
system.caches.controllers5.cacheMemory.m_demand_misses            0                       # Number of cache demand misses (Unspecified)
system.caches.controllers5.cacheMemory.m_demand_accesses            0                       # Number of cache demand accesses (Unspecified)
system.caches.controllers5.forwardFromDir.m_buf_msgs     0.001617                       # Average number of messages in buffer (Unspecified)
system.caches.controllers5.forwardFromDir.m_stall_time  5079.229747                       # Average number of cycles messages are stalled in this MB (Unspecified)
system.caches.controllers5.forwardFromDir.m_stall_count        12205                       # Number of times messages were stalled (Unspecified)
system.caches.controllers5.forwardToL0.m_buf_msgs     0.000988                       # Average number of messages in buffer (Unspecified)
system.caches.controllers5.forwardToL0.m_stall_time   992.578764                       # Average number of cycles messages are stalled in this MB (Unspecified)
system.caches.controllers5.power_state.pwrStateResidencyTicks::UNDEFINED 689608447000                       # Cumulative time (in ticks) in various power states (Tick)
system.caches.controllers5.requestFromL0.m_buf_msgs     0.241970                       # Average number of messages in buffer (Unspecified)
system.caches.controllers5.requestFromL0.m_stall_time 128760.961234                       # Average number of cycles messages are stalled in this MB (Unspecified)
system.caches.controllers5.requestFromL0.m_stall_count       996393                       # Number of times messages were stalled (Unspecified)
system.caches.controllers5.requestToDir.m_buf_msgs     0.003108                       # Average number of messages in buffer (Unspecified)
system.caches.controllers5.requestToDir.m_stall_time   992.595352                       # Average number of cycles messages are stalled in this MB (Unspecified)
system.caches.controllers5.responseFromDirOrSibling.m_buf_msgs     0.001700                       # Average number of messages in buffer (Unspecified)
system.caches.controllers5.responseFromDirOrSibling.m_stall_time 12817.391078                       # Average number of cycles messages are stalled in this MB (Unspecified)
system.caches.controllers5.responseFromL0.m_buf_msgs     0.000043                       # Average number of messages in buffer (Unspecified)
system.caches.controllers5.responseFromL0.m_stall_time  4963.497685                       # Average number of cycles messages are stalled in this MB (Unspecified)
system.caches.controllers5.responseToDirOrSibling.m_buf_msgs     0.000026                       # Average number of messages in buffer (Unspecified)
system.caches.controllers5.responseToDirOrSibling.m_stall_time   992.509345                       # Average number of cycles messages are stalled in this MB (Unspecified)
system.caches.controllers5.responseToL0.m_buf_msgs     0.002250                       # Average number of messages in buffer (Unspecified)
system.caches.controllers5.responseToL0.m_stall_time   992.595326                       # Average number of cycles messages are stalled in this MB (Unspecified)
system.caches.controllers5.xyzStatsObject.power_state.pwrStateResidencyTicks::UNDEFINED 689608447000                       # Cumulative time (in ticks) in various power states (Tick)
system.caches.controllers6.cacheMemory.m_demand_hits            0                       # Number of cache demand hits (Unspecified)
system.caches.controllers6.cacheMemory.m_demand_misses            0                       # Number of cache demand misses (Unspecified)
system.caches.controllers6.cacheMemory.m_demand_accesses            0                       # Number of cache demand accesses (Unspecified)
system.caches.controllers6.forwardFromDir.m_buf_msgs     0.001649                       # Average number of messages in buffer (Unspecified)
system.caches.controllers6.forwardFromDir.m_stall_time  5051.714807                       # Average number of cycles messages are stalled in this MB (Unspecified)
system.caches.controllers6.forwardFromDir.m_stall_count        13321                       # Number of times messages were stalled (Unspecified)
system.caches.controllers6.forwardToL0.m_buf_msgs     0.001008                       # Average number of messages in buffer (Unspecified)
system.caches.controllers6.forwardToL0.m_stall_time   992.502854                       # Average number of cycles messages are stalled in this MB (Unspecified)
system.caches.controllers6.power_state.pwrStateResidencyTicks::UNDEFINED 689608447000                       # Cumulative time (in ticks) in various power states (Tick)
system.caches.controllers6.requestFromL0.m_buf_msgs     0.241910                       # Average number of messages in buffer (Unspecified)
system.caches.controllers6.requestFromL0.m_stall_time 128798.080017                       # Average number of cycles messages are stalled in this MB (Unspecified)
system.caches.controllers6.requestFromL0.m_stall_count      1003483                       # Number of times messages were stalled (Unspecified)
system.caches.controllers6.requestToDir.m_buf_msgs     0.003133                       # Average number of messages in buffer (Unspecified)
system.caches.controllers6.requestToDir.m_stall_time   992.514185                       # Average number of cycles messages are stalled in this MB (Unspecified)
system.caches.controllers6.responseFromDirOrSibling.m_buf_msgs     0.001713                       # Average number of messages in buffer (Unspecified)
system.caches.controllers6.responseFromDirOrSibling.m_stall_time 12830.449065                       # Average number of cycles messages are stalled in this MB (Unspecified)
system.caches.controllers6.responseFromL0.m_buf_msgs     0.000045                       # Average number of messages in buffer (Unspecified)
system.caches.controllers6.responseFromL0.m_stall_time  4962.568627                       # Average number of cycles messages are stalled in this MB (Unspecified)
system.caches.controllers6.responseToDirOrSibling.m_buf_msgs     0.000034                       # Average number of messages in buffer (Unspecified)
system.caches.controllers6.responseToDirOrSibling.m_stall_time   992.500855                       # Average number of cycles messages are stalled in this MB (Unspecified)
system.caches.controllers6.responseToL0.m_buf_msgs     0.002383                       # Average number of messages in buffer (Unspecified)
system.caches.controllers6.responseToL0.m_stall_time   992.514159                       # Average number of cycles messages are stalled in this MB (Unspecified)
system.caches.controllers6.xyzStatsObject.power_state.pwrStateResidencyTicks::UNDEFINED 689608447000                       # Cumulative time (in ticks) in various power states (Tick)
system.caches.controllers7.cacheMemory.m_demand_hits            0                       # Number of cache demand hits (Unspecified)
system.caches.controllers7.cacheMemory.m_demand_misses            0                       # Number of cache demand misses (Unspecified)
system.caches.controllers7.cacheMemory.m_demand_accesses            0                       # Number of cache demand accesses (Unspecified)
system.caches.controllers7.forwardFromDir.m_buf_msgs     0.001643                       # Average number of messages in buffer (Unspecified)
system.caches.controllers7.forwardFromDir.m_stall_time  5068.667858                       # Average number of cycles messages are stalled in this MB (Unspecified)
system.caches.controllers7.forwardFromDir.m_stall_count        12881                       # Number of times messages were stalled (Unspecified)
system.caches.controllers7.forwardToL0.m_buf_msgs     0.001005                       # Average number of messages in buffer (Unspecified)
system.caches.controllers7.forwardToL0.m_stall_time   992.458842                       # Average number of cycles messages are stalled in this MB (Unspecified)
system.caches.controllers7.power_state.pwrStateResidencyTicks::UNDEFINED 689608447000                       # Cumulative time (in ticks) in various power states (Tick)
system.caches.controllers7.requestFromL0.m_buf_msgs     0.242206                       # Average number of messages in buffer (Unspecified)
system.caches.controllers7.requestFromL0.m_stall_time 129102.413764                       # Average number of cycles messages are stalled in this MB (Unspecified)
system.caches.controllers7.requestFromL0.m_stall_count      1004354                       # Number of times messages were stalled (Unspecified)
system.caches.controllers7.requestToDir.m_buf_msgs     0.003135                       # Average number of messages in buffer (Unspecified)
system.caches.controllers7.requestToDir.m_stall_time   992.465571                       # Average number of cycles messages are stalled in this MB (Unspecified)
system.caches.controllers7.responseFromDirOrSibling.m_buf_msgs     0.001714                       # Average number of messages in buffer (Unspecified)
system.caches.controllers7.responseFromDirOrSibling.m_stall_time 12820.586655                       # Average number of cycles messages are stalled in this MB (Unspecified)
system.caches.controllers7.responseFromL0.m_buf_msgs     0.000043                       # Average number of messages in buffer (Unspecified)
system.caches.controllers7.responseFromL0.m_stall_time  4962.406299                       # Average number of cycles messages are stalled in this MB (Unspecified)
system.caches.controllers7.responseToDirOrSibling.m_buf_msgs     0.000031                       # Average number of messages in buffer (Unspecified)
system.caches.controllers7.responseToDirOrSibling.m_stall_time   992.457494                       # Average number of cycles messages are stalled in this MB (Unspecified)
system.caches.controllers7.responseToL0.m_buf_msgs     0.002295                       # Average number of messages in buffer (Unspecified)
system.caches.controllers7.responseToL0.m_stall_time   992.465545                       # Average number of cycles messages are stalled in this MB (Unspecified)
system.caches.controllers7.xyzStatsObject.power_state.pwrStateResidencyTicks::UNDEFINED 689608447000                       # Cumulative time (in ticks) in various power states (Tick)
system.caches.controllers8.cacheMemory.m_demand_hits            0                       # Number of cache demand hits (Unspecified)
system.caches.controllers8.cacheMemory.m_demand_misses            0                       # Number of cache demand misses (Unspecified)
system.caches.controllers8.cacheMemory.m_demand_accesses            0                       # Number of cache demand accesses (Unspecified)
system.caches.controllers8.forwardToCache.m_buf_msgs     0.006832                       # Average number of messages in buffer (Unspecified)
system.caches.controllers8.forwardToCache.m_stall_time   999.993915                       # Average number of cycles messages are stalled in this MB (Unspecified)
system.caches.controllers8.power_state.pwrStateResidencyTicks::UNDEFINED 689608447000                       # Cumulative time (in ticks) in various power states (Tick)
system.caches.controllers8.requestFromCache.m_not_avail_count      2619098                       # Number of times this buffer did not have N slots available (Unspecified)
system.caches.controllers8.requestFromCache.m_buf_msgs     0.012554                       # Average number of messages in buffer (Unspecified)
system.caches.controllers8.requestFromCache.m_stall_time 255574.457461                       # Average number of cycles messages are stalled in this MB (Unspecified)
system.caches.controllers8.requestFromCache.m_occupancy     0.012554                       # Average occupancy of buffer capacity (Unspecified)
system.caches.controllers8.requestToMemory.m_buf_msgs     0.007116                       # Average number of messages in buffer (Unspecified)
system.caches.controllers8.requestToMemory.m_stall_time   999.999983                       # Average number of cycles messages are stalled in this MB (Unspecified)
system.caches.controllers8.responseFromMemory.m_buf_msgs     0.007116                       # Average number of messages in buffer (Unspecified)
system.caches.controllers8.responseFromMemory.m_stall_time   999.999836                       # Average number of cycles messages are stalled in this MB (Unspecified)
system.caches.controllers8.responseToCache.m_buf_msgs     0.060701                       # Average number of messages in buffer (Unspecified)
system.caches.controllers8.responseToCache.m_stall_time  8999.998408                       # Average number of cycles messages are stalled in this MB (Unspecified)
system.caches.controllers8.xyzCacheMemory.m_demand_hits            0                       # Number of cache demand hits (Unspecified)
system.caches.controllers8.xyzCacheMemory.m_demand_misses            0                       # Number of cache demand misses (Unspecified)
system.caches.controllers8.xyzCacheMemory.m_demand_accesses            0                       # Number of cache demand accesses (Unspecified)
system.caches.controllers8.xyzStatsObject.power_state.pwrStateResidencyTicks::UNDEFINED 689608447000                       # Cumulative time (in ticks) in various power states (Tick)
system.caches.network.msg_count.Control      41046408                       (Unspecified)
system.caches.network.msg_byte.Control      328371264                       (Unspecified)
system.caches.network.msg_count.Data         23377586                       (Unspecified)
system.caches.network.msg_byte.Data        1683186192                       (Unspecified)
system.caches.network.msg_count.Response_Data      4468614                       (Unspecified)
[...]
system.caches.controllers2.xyzStatsObjectlatency::underflows            0      0.00%      0.00% # Mem access latency (Unspecified)
system.caches.controllers2.xyzStatsObjectlatency::0-49999      1643306    100.00%    100.00% # Mem access latency (Unspecified)
system.caches.controllers2.xyzStatsObjectlatency::50000-99999            0      0.00%    100.00% # Mem access latency (Unspecified)
system.caches.controllers2.xyzStatsObjectlatency::100000            0      0.00%    100.00% # Mem access latency (Unspecified)
system.caches.controllers2.xyzStatsObjectlatency::overflows            0      0.00%    100.00% # Mem access latency (Unspecified)
system.caches.controllers2.xyzStatsObjectlatency::min_value           10                       # Mem access latency (Unspecified)
system.caches.controllers2.xyzStatsObjectlatency::max_value         1141                       # Mem access latency (Unspecified)
system.caches.controllers2.xyzStatsObjectlatency::total      1643306                       # Mem access latency (Unspecified)
system.caches.controllers3.xyzStatsObject.total_put            0                       # Total number of put (PutM + PutS) (Unspecified)
system.caches.controllers3.xyzStatsObject.total_put_as_wt            0                       # Total number of put as write through (Unspecified)
system.caches.controllers3.xyzStatsObject.total_putm            0                       # Total number of PutM (Unspecified)
system.caches.controllers3.xyzStatsObject.total_putm_as_wt            0                       # Total number of PutM as write through (Unspecified)
system.caches.controllers3.xyzStatsObject.total_puts            0                       # Total number of PutS (Unspecified)
system.caches.controllers3.xyzStatsObject.total_puts_as_wt            0                       # Total number of PutS as write through (Unspecified)
system.caches.controllers3.xyzStatsObject.total_repl            0                       # Total Replacement (Unspecified)
system.caches.controllers3.xyzStatsObject.total_repl_llc            0                       # Total Replacement of LLC line (Unspecified)
system.caches.controllers3.xyzStatsObject.total_repl_owned            0                       # Total Replacement of owned line (Unspecified)
system.caches.controllers3.xyzStatsObject.total_repl_shared            0                       # Total Replacement of shared line (Unspecified)
system.caches.controllers3.xyzStatsObject.wt_putRatio          nan                       # WT / Put (Unspecified)
system.caches.controllers3.xyzStatsObject.wt_putmRatio          nan                       # PutM WT / PutM (Unspecified)
system.caches.controllers3.xyzStatsObject.wt_putsRatio          nan                       # PutS WT / PutS (Unspecified)
system.caches.controllers3.xyzStatsObjectlatency::samples      1582612                       # Mem access latency (Unspecified)
system.caches.controllers3.xyzStatsObjectlatency::mean   370.098646                       # Mem access latency (Unspecified)
system.caches.controllers3.xyzStatsObjectlatency::stdev   338.385949                       # Mem access latency (Unspecified)
system.caches.controllers3.xyzStatsObjectlatency::underflows            0      0.00%      0.00% # Mem access latency (Unspecified)
system.caches.controllers3.xyzStatsObjectlatency::0-49999      1582612    100.00%    100.00% # Mem access latency (Unspecified)
system.caches.controllers3.xyzStatsObjectlatency::50000-99999            0      0.00%    100.00% # Mem access latency (Unspecified)
system.caches.controllers3.xyzStatsObjectlatency::100000            0      0.00%    100.00% # Mem access latency (Unspecified)
system.caches.controllers3.xyzStatsObjectlatency::overflows            0      0.00%    100.00% # Mem access latency (Unspecified)
system.caches.controllers3.xyzStatsObjectlatency::min_value           10                       # Mem access latency (Unspecified)
system.caches.controllers3.xyzStatsObjectlatency::max_value         1131                       # Mem access latency (Unspecified)
system.caches.controllers3.xyzStatsObjectlatency::total      1582612                       # Mem access latency (Unspecified)
system.caches.controllers4.xyzStatsObject.total_put            0                       # Total number of put (PutM + PutS) (Unspecified)
system.caches.controllers4.xyzStatsObject.total_put_as_wt            0                       # Total number of put as write through (Unspecified)
system.caches.controllers4.xyzStatsObject.total_putm            0                       # Total number of PutM (Unspecified)
system.caches.controllers4.xyzStatsObject.total_putm_as_wt            0                       # Total number of PutM as write through (Unspecified)
system.caches.controllers4.xyzStatsObject.total_puts            0                       # Total number of PutS (Unspecified)
system.caches.controllers4.xyzStatsObject.total_puts_as_wt            0                       # Total number of PutS as write through (Unspecified)
system.caches.controllers4.xyzStatsObject.total_repl            0                       # Total Replacement (Unspecified)
system.caches.controllers4.xyzStatsObject.total_repl_llc            0                       # Total Replacement of LLC line (Unspecified)
system.caches.controllers4.xyzStatsObject.total_repl_owned            0                       # Total Replacement of owned line (Unspecified)
system.caches.controllers4.xyzStatsObject.total_repl_shared            0                       # Total Replacement of shared line (Unspecified)
system.caches.controllers4.xyzStatsObject.wt_putRatio          nan                       # WT / Put (Unspecified)
system.caches.controllers4.xyzStatsObject.wt_putmRatio          nan                       # PutM WT / PutM (Unspecified)
system.caches.controllers4.xyzStatsObject.wt_putsRatio          nan                       # PutS WT / PutS (Unspecified)
system.caches.controllers4.xyzStatsObjectlatency::samples      1192070                       # Mem access latency (Unspecified)
system.caches.controllers4.xyzStatsObjectlatency::mean   341.039361                       # Mem access latency (Unspecified)
system.caches.controllers4.xyzStatsObjectlatency::stdev   213.006320                       # Mem access latency (Unspecified)
system.caches.controllers4.xyzStatsObjectlatency::underflows            0      0.00%      0.00% # Mem access latency (Unspecified)
system.caches.controllers4.xyzStatsObjectlatency::0-49999      1192070    100.00%    100.00% # Mem access latency (Unspecified)
system.caches.controllers4.xyzStatsObjectlatency::50000-99999            0      0.00%    100.00% # Mem access latency (Unspecified)
system.caches.controllers4.xyzStatsObjectlatency::100000            0      0.00%    100.00% # Mem access latency (Unspecified)
system.caches.controllers4.xyzStatsObjectlatency::overflows            0      0.00%    100.00% # Mem access latency (Unspecified)
system.caches.controllers4.xyzStatsObjectlatency::min_value           15                       # Mem access latency (Unspecified)
system.caches.controllers4.xyzStatsObjectlatency::max_value          732                       # Mem access latency (Unspecified)
system.caches.controllers4.xyzStatsObjectlatency::total      1192070                       # Mem access latency (Unspecified)
system.caches.controllers5.xyzStatsObject.total_put            0                       # Total number of put (PutM + PutS) (Unspecified)
system.caches.controllers5.xyzStatsObject.total_put_as_wt            0                       # Total number of put as write through (Unspecified)
system.caches.controllers5.xyzStatsObject.total_putm            0                       # Total number of PutM (Unspecified)
system.caches.controllers5.xyzStatsObject.total_putm_as_wt            0                       # Total number of PutM as write through (Unspecified)
system.caches.controllers5.xyzStatsObject.total_puts            0                       # Total number of PutS (Unspecified)
system.caches.controllers5.xyzStatsObject.total_puts_as_wt            0                       # Total number of PutS as write through (Unspecified)
system.caches.controllers5.xyzStatsObject.total_repl            0                       # Total Replacement (Unspecified)
system.caches.controllers5.xyzStatsObject.total_repl_llc            0                       # Total Replacement of LLC line (Unspecified)
system.caches.controllers5.xyzStatsObject.total_repl_owned            0                       # Total Replacement of owned line (Unspecified)
system.caches.controllers5.xyzStatsObject.total_repl_shared            0                       # Total Replacement of shared line (Unspecified)
system.caches.controllers5.xyzStatsObject.wt_putRatio          nan                       # WT / Put (Unspecified)
system.caches.controllers5.xyzStatsObject.wt_putmRatio          nan                       # PutM WT / PutM (Unspecified)
system.caches.controllers5.xyzStatsObject.wt_putsRatio          nan                       # PutS WT / PutS (Unspecified)
system.caches.controllers5.xyzStatsObjectlatency::samples      1166955                       # Mem access latency (Unspecified)
system.caches.controllers5.xyzStatsObjectlatency::mean   343.918845                       # Mem access latency (Unspecified)
system.caches.controllers5.xyzStatsObjectlatency::stdev   213.175023                       # Mem access latency (Unspecified)
system.caches.controllers5.xyzStatsObjectlatency::underflows            0      0.00%      0.00% # Mem access latency (Unspecified)
system.caches.controllers5.xyzStatsObjectlatency::0-49999      1166955    100.00%    100.00% # Mem access latency (Unspecified)
system.caches.controllers5.xyzStatsObjectlatency::50000-99999            0      0.00%    100.00% # Mem access latency (Unspecified)
system.caches.controllers5.xyzStatsObjectlatency::100000            0      0.00%    100.00% # Mem access latency (Unspecified)
system.caches.controllers5.xyzStatsObjectlatency::overflows            0      0.00%    100.00% # Mem access latency (Unspecified)
system.caches.controllers5.xyzStatsObjectlatency::min_value           15                       # Mem access latency (Unspecified)
system.caches.controllers5.xyzStatsObjectlatency::max_value          732                       # Mem access latency (Unspecified)
system.caches.controllers5.xyzStatsObjectlatency::total      1166955                       # Mem access latency (Unspecified)
system.caches.controllers6.xyzStatsObject.total_put            0                       # Total number of put (PutM + PutS) (Unspecified)
system.caches.controllers6.xyzStatsObject.total_put_as_wt            0                       # Total number of put as write through (Unspecified)
system.caches.controllers6.xyzStatsObject.total_putm            0                       # Total number of PutM (Unspecified)
system.caches.controllers6.xyzStatsObject.total_putm_as_wt            0                       # Total number of PutM as write through (Unspecified)
system.caches.controllers6.xyzStatsObject.total_puts            0                       # Total number of PutS (Unspecified)
system.caches.controllers6.xyzStatsObject.total_puts_as_wt            0                       # Total number of PutS as write through (Unspecified)
system.caches.controllers6.xyzStatsObject.total_repl            0                       # Total Replacement (Unspecified)
system.caches.controllers6.xyzStatsObject.total_repl_llc            0                       # Total Replacement of LLC line (Unspecified)
system.caches.controllers6.xyzStatsObject.total_repl_owned            0                       # Total Replacement of owned line (Unspecified)
system.caches.controllers6.xyzStatsObject.total_repl_shared            0                       # Total Replacement of shared line (Unspecified)
system.caches.controllers6.xyzStatsObject.wt_putRatio          nan                       # WT / Put (Unspecified)
system.caches.controllers6.xyzStatsObject.wt_putmRatio          nan                       # PutM WT / PutM (Unspecified)
system.caches.controllers6.xyzStatsObject.wt_putsRatio          nan                       # PutS WT / PutS (Unspecified)
system.caches.controllers6.xyzStatsObjectlatency::samples      1178196                       # Mem access latency (Unspecified)
system.caches.controllers6.xyzStatsObjectlatency::mean   342.259008                       # Mem access latency (Unspecified)
system.caches.controllers6.xyzStatsObjectlatency::stdev   213.081583                       # Mem access latency (Unspecified)
system.caches.controllers6.xyzStatsObjectlatency::underflows            0      0.00%      0.00% # Mem access latency (Unspecified)
system.caches.controllers6.xyzStatsObjectlatency::0-49999      1178196    100.00%    100.00% # Mem access latency (Unspecified)
system.caches.controllers6.xyzStatsObjectlatency::50000-99999            0      0.00%    100.00% # Mem access latency (Unspecified)
system.caches.controllers6.xyzStatsObjectlatency::100000            0      0.00%    100.00% # Mem access latency (Unspecified)
system.caches.controllers6.xyzStatsObjectlatency::overflows            0      0.00%    100.00% # Mem access latency (Unspecified)
system.caches.controllers6.xyzStatsObjectlatency::min_value           15                       # Mem access latency (Unspecified)
system.caches.controllers6.xyzStatsObjectlatency::max_value          732                       # Mem access latency (Unspecified)
system.caches.controllers6.xyzStatsObjectlatency::total      1178196                       # Mem access latency (Unspecified)
system.caches.controllers7.xyzStatsObject.total_put            0                       # Total number of put (PutM + PutS) (Unspecified)
system.caches.controllers7.xyzStatsObject.total_put_as_wt            0                       # Total number of put as write through (Unspecified)
system.caches.controllers7.xyzStatsObject.total_putm            0                       # Total number of PutM (Unspecified)
system.caches.controllers7.xyzStatsObject.total_putm_as_wt            0                       # Total number of PutM as write through (Unspecified)
system.caches.controllers7.xyzStatsObject.total_puts            0                       # Total number of PutS (Unspecified)
system.caches.controllers7.xyzStatsObject.total_puts_as_wt            0                       # Total number of PutS as write through (Unspecified)
system.caches.controllers7.xyzStatsObject.total_repl            0                       # Total Replacement (Unspecified)
system.caches.controllers7.xyzStatsObject.total_repl_llc            0                       # Total Replacement of LLC line (Unspecified)
system.caches.controllers7.xyzStatsObject.total_repl_owned            0                       # Total Replacement of owned line (Unspecified)
system.caches.controllers7.xyzStatsObject.total_repl_shared            0                       # Total Replacement of shared line (Unspecified)
system.caches.controllers7.xyzStatsObject.wt_putRatio          nan                       # WT / Put (Unspecified)
system.caches.controllers7.xyzStatsObject.wt_putmRatio          nan                       # PutM WT / PutM (Unspecified)
system.caches.controllers7.xyzStatsObject.wt_putsRatio          nan                       # PutS WT / PutS (Unspecified)
system.caches.controllers7.xyzStatsObjectlatency::samples      1177954                       # Mem access latency (Unspecified)
system.caches.controllers7.xyzStatsObjectlatency::mean   342.473513                       # Mem access latency (Unspecified)
system.caches.controllers7.xyzStatsObjectlatency::stdev   213.346610                       # Mem access latency (Unspecified)
system.caches.controllers7.xyzStatsObjectlatency::underflows            0      0.00%      0.00% # Mem access latency (Unspecified)
system.caches.controllers7.xyzStatsObjectlatency::0-49999      1177954    100.00%    100.00% # Mem access latency (Unspecified)
system.caches.controllers7.xyzStatsObjectlatency::50000-99999            0      0.00%    100.00% # Mem access latency (Unspecified)
system.caches.controllers7.xyzStatsObjectlatency::100000            0      0.00%    100.00% # Mem access latency (Unspecified)
system.caches.controllers7.xyzStatsObjectlatency::overflows            0      0.00%    100.00% # Mem access latency (Unspecified)
system.caches.controllers7.xyzStatsObjectlatency::min_value           15                       # Mem access latency (Unspecified)
system.caches.controllers7.xyzStatsObjectlatency::max_value          739                       # Mem access latency (Unspecified)
system.caches.controllers7.xyzStatsObjectlatency::total      1177954                       # Mem access latency (Unspecified)
system.caches.controllers8.xyzStatsObject.total_put      4150532                       # Total number of put (PutM + PutS) (Unspecified)
system.caches.controllers8.xyzStatsObject.total_put_as_wt      2490327                       # Total number of put as write through (Unspecified)
system.caches.controllers8.xyzStatsObject.total_putm      1309549                       # Total number of PutM (Unspecified)
system.caches.controllers8.xyzStatsObject.total_putm_as_wt       910163                       # Total number of PutM as write through (Unspecified)
system.caches.controllers8.xyzStatsObject.total_puts      2840983                       # Total number of PutS (Unspecified)
system.caches.controllers8.xyzStatsObject.total_puts_as_wt      1580164                       # Total number of PutS as write through (Unspecified)
system.caches.controllers8.xyzStatsObject.total_repl            0                       # Total Replacement (Unspecified)
system.caches.controllers8.xyzStatsObject.total_repl_llc            0                       # Total Replacement of LLC line (Unspecified)
system.caches.controllers8.xyzStatsObject.total_repl_owned            0                       # Total Replacement of owned line (Unspecified)
system.caches.controllers8.xyzStatsObject.total_repl_shared            0                       # Total Replacement of shared line (Unspecified)
system.caches.controllers8.xyzStatsObject.wt_putRatio     0.600002                       # WT / Put (Unspecified)
system.caches.controllers8.xyzStatsObject.wt_putmRatio     0.695020                       # PutM WT / PutM (Unspecified)
system.caches.controllers8.xyzStatsObject.wt_putsRatio     0.556203                       # PutS WT / PutS (Unspecified)
system.caches.controllers8.xyzStatsObjectlatency::samples            0                       # Mem access latency (Unspecified)
system.caches.controllers8.xyzStatsObjectlatency::mean          nan                       # Mem access latency (Unspecified)
system.caches.controllers8.xyzStatsObjectlatency::stdev          nan                       # Mem access latency (Unspecified)
system.caches.controllers8.xyzStatsObjectlatency::underflows            0                       # Mem access latency (Unspecified)
system.caches.controllers8.xyzStatsObjectlatency::0-49999            0                       # Mem access latency (Unspecified)
system.caches.controllers8.xyzStatsObjectlatency::50000-99999            0                       # Mem access latency (Unspecified)
system.caches.controllers8.xyzStatsObjectlatency::100000            0                       # Mem access latency (Unspecified)
system.caches.controllers8.xyzStatsObjectlatency::overflows            0                       # Mem access latency (Unspecified)
system.caches.controllers8.xyzStatsObjectlatency::min_value            0                       # Mem access latency (Unspecified)
system.caches.controllers8.xyzStatsObjectlatency::max_value            0                       # Mem access latency (Unspecified)
system.caches.controllers8.xyzStatsObjectlatency::total            0                       # Mem access latency (Unspecified)

---------- End Simulation Statistics   ----------
