
---------- Begin Simulation Statistics ----------
simSeconds                                   0.713695                       # Number of seconds simulated (Second)
simTicks                                 713695487000                       # Number of ticks simulated (Tick)
finalTick                                713695487000                       # Number of ticks from beginning of simulation (restored from checkpoints and never reset) (Tick)
simFreq                                  1000000000000                       # The number of ticks per simulated second ((Tick/Second))
hostSeconds                                    278.55                       # Real time elapsed on the host (Second)
hostTickRate                               2562187245                       # The number of ticks simulated per host second (ticks/s) ((Tick/Second))
hostMemory                                    4952576                       # Number of bytes of host memory used (Byte)
simInsts                                     98167774                       # Number of instructions simulated (Count)
simOps                                      163598448                       # Number of ops (including micro ops) simulated (Count)
hostInstRate                                   352424                       # Simulator instruction rate (inst/s) ((Count/Second))
hostOpRate                                     587321                       # Simulator op (including micro ops) rate (op/s) ((Count/Second))
system.caches.m_outstandReqHistSeqr::bucket_size            1                       (Unspecified)
system.caches.m_outstandReqHistSeqr::max_bucket            9                       (Unspecified)
system.caches.m_outstandReqHistSeqr::samples    180761365                       (Unspecified)
system.caches.m_outstandReqHistSeqr::mean            1                       (Unspecified)
system.caches.m_outstandReqHistSeqr::gmean            1                       (Unspecified)
system.caches.m_outstandReqHistSeqr      |           0      0.00%      0.00% |   180761365    100.00%    100.00% |           0      0.00%    100.00% |           0      0.00%    100.00% |           0      0.00%    100.00% |           0      0.00%    100.00% |           0      0.00%    100.00% |           0      0.00%    100.00% |           0      0.00%    100.00% |           0      0.00%    100.00% (Unspecified)
system.caches.m_outstandReqHistSeqr::total    180761365                       (Unspecified)
system.caches.m_latencyHistSeqr::bucket_size          128                       (Unspecified)
system.caches.m_latencyHistSeqr::max_bucket         1279                       (Unspecified)
system.caches.m_latencyHistSeqr::samples    180761365                       (Unspecified)
system.caches.m_latencyHistSeqr::mean       14.497078                       (Unspecified)
system.caches.m_latencyHistSeqr::gmean       1.193460                       (Unspecified)
system.caches.m_latencyHistSeqr::stdev      95.549243                       (Unspecified)
system.caches.m_latencyHistSeqr          |   176645170     97.72%     97.72% |      666659      0.37%     98.09% |      492138      0.27%     98.36% |      492909      0.27%     98.64% |      584949      0.32%     98.96% |      735903      0.41%     99.37% |      657121      0.36%     99.73% |      473544      0.26%     99.99% |       12972      0.01%    100.00% |           0      0.00%    100.00% (Unspecified)
system.caches.m_latencyHistSeqr::total      180761365                       (Unspecified)
system.caches.m_hitLatencyHistSeqr::bucket_size            1                       (Unspecified)
system.caches.m_hitLatencyHistSeqr::max_bucket            9                       (Unspecified)
system.caches.m_hitLatencyHistSeqr::samples    174398594                       (Unspecified)
system.caches.m_hitLatencyHistSeqr::mean            1                       (Unspecified)
system.caches.m_hitLatencyHistSeqr::gmean            1                       (Unspecified)
system.caches.m_hitLatencyHistSeqr       |           0      0.00%      0.00% |   174398594    100.00%    100.00% |           0      0.00%    100.00% |           0      0.00%    100.00% |           0      0.00%    100.00% |           0      0.00%    100.00% |           0      0.00%    100.00% |           0      0.00%    100.00% |           0      0.00%    100.00% |           0      0.00%    100.00% (Unspecified)
system.caches.m_hitLatencyHistSeqr::total    174398594                       (Unspecified)
system.caches.m_missLatencyHistSeqr::bucket_size          128                       (Unspecified)
system.caches.m_missLatencyHistSeqr::max_bucket         1279                       (Unspecified)
system.caches.m_missLatencyHistSeqr::samples      6362771                       (Unspecified)
system.caches.m_missLatencyHistSeqr::mean   384.441476                       (Unspecified)
system.caches.m_missLatencyHistSeqr::gmean   152.072834                       (Unspecified)
system.caches.m_missLatencyHistSeqr::stdev   342.803810                       (Unspecified)
system.caches.m_missLatencyHistSeqr      |     2246576     35.31%     35.31% |      666659     10.48%     45.79% |      492138      7.73%     53.52% |      492909      7.75%     61.27% |      584949      9.19%     70.46% |      735903     11.57%     82.03% |      657121     10.33%     92.35% |      473544      7.44%     99.80% |       12972      0.20%    100.00% |           0      0.00%    100.00% (Unspecified)
system.caches.m_missLatencyHistSeqr::total      6362771                       (Unspecified)
system.caches.L0Cache_Controller.Load    |     8107052     25.13%     25.13% |     8006299     24.81%     49.94% |     8061391     24.98%     74.92% |     8090857     25.08%    100.00% (Unspecified)
system.caches.L0Cache_Controller.Load::total     32265599                       (Unspecified)
system.caches.L0Cache_Controller.Ifetch  |    35594031     25.18%     25.18% |    35050642     24.80%     49.98% |    35308441     24.98%     74.96% |    35400536     25.04%    100.00% (Unspecified)
system.caches.L0Cache_Controller.Ifetch::total    141353650                       (Unspecified)
system.caches.L0Cache_Controller.Store   |     1811215     25.36%     25.36% |     1770959     24.80%     50.16% |     1779756     24.92%     75.07% |     1780186     24.93%    100.00% (Unspecified)
system.caches.L0Cache_Controller.Store::total      7142116                       (Unspecified)
system.caches.L0Cache_Controller.Replacement |     1220994     24.80%     24.80% |     1198897     24.35%     49.15% |     1281357     26.03%     75.17% |     1222280     24.83%    100.00% (Unspecified)
system.caches.L0Cache_Controller.Replacement::total      4923528                       (Unspecified)
system.caches.L0Cache_Controller.Inv     |      702454     25.34%     25.34% |      681405     24.58%     49.92% |      694783     25.06%     74.99% |      693357     25.01%    100.00% (Unspecified)
system.caches.L0Cache_Controller.Inv::total      2771999                       (Unspecified)
system.caches.L0Cache_Controller.Data    |     1554621     24.91%     24.91% |     1521414     24.38%     49.29% |     1613806     25.86%     75.15% |     1551153     24.85%    100.00% (Unspecified)
system.caches.L0Cache_Controller.Data::total      6240994                       (Unspecified)
system.caches.L0Cache_Controller.ExData  |       30129     24.74%     24.74% |       30157     24.76%     49.51% |       29826     24.49%     74.00% |       31665     26.00%    100.00% (Unspecified)
system.caches.L0Cache_Controller.ExData::total       121777                       (Unspecified)
system.caches.L0Cache_Controller.I.Load  |     1117930     24.88%     24.88% |     1103491     24.56%     49.43% |     1143882     25.45%     74.89% |     1128604     25.11%    100.00% (Unspecified)
system.caches.L0Cache_Controller.I.Load::total      4493907                       (Unspecified)
system.caches.L0Cache_Controller.I.Ifetch |      120734     26.58%     26.58% |      107521     23.67%     50.24% |      113225     24.92%     75.17% |      112814     24.83%    100.00% (Unspecified)
system.caches.L0Cache_Controller.I.Ifetch::total       454294                       (Unspecified)
system.caches.L0Cache_Controller.I.Store |      172981     23.84%     23.84% |      168613     23.24%     47.07% |      214370     29.54%     76.62% |      169678     23.38%    100.00% (Unspecified)
system.caches.L0Cache_Controller.I.Store::total       725642                       (Unspecified)
system.caches.L0Cache_Controller.I.Inv   |      511862     25.32%     25.32% |      500734     24.77%     50.08% |      504720     24.96%     75.04% |      504597     24.96%    100.00% (Unspecified)
system.caches.L0Cache_Controller.I.Inv::total      2021913                       (Unspecified)
system.caches.L0Cache_Controller.IS_D.Data |     1208535     25.04%     25.04% |     1180855     24.47%     49.51% |     1227281     25.43%     74.93% |     1209753     25.07%    100.00% (Unspecified)
system.caches.L0Cache_Controller.IS_D.Data::total      4826424                       (Unspecified)
system.caches.L0Cache_Controller.IS_D.ExData |       30129     24.74%     24.74% |       30157     24.76%     49.51% |       29826     24.49%     74.00% |       31665     26.00%    100.00% (Unspecified)
system.caches.L0Cache_Controller.IS_D.ExData::total       121777                       (Unspecified)
system.caches.L0Cache_Controller.IM_D.Inv |           1     33.33%     33.33% |           0      0.00%     33.33% |           0      0.00%     33.33% |           2     66.67%    100.00% (Unspecified)
system.caches.L0Cache_Controller.IM_D.Inv::total            3                       (Unspecified)
system.caches.L0Cache_Controller.IM_D.Data |      346086     24.47%     24.47% |      340559     24.08%     48.54% |      386525     27.32%     75.87% |      341400     24.13%    100.00% (Unspecified)
system.caches.L0Cache_Controller.IM_D.Data::total      1414570                       (Unspecified)
system.caches.L0Cache_Controller.S.Load  |     5572001     25.11%     25.11% |     5518262     24.87%     49.98% |     5534123     24.94%     74.92% |     5564722     25.08%    100.00% (Unspecified)
system.caches.L0Cache_Controller.S.Load::total     22189108                       (Unspecified)
system.caches.L0Cache_Controller.S.Ifetch |    35473297     25.18%     25.18% |    34943121     24.80%     49.98% |    35195216     24.98%     74.96% |    35287722     25.04%    100.00% (Unspecified)
system.caches.L0Cache_Controller.S.Ifetch::total    140899356                       (Unspecified)
system.caches.L0Cache_Controller.S.Store |      173105     25.13%     25.13% |      171946     24.96%     50.09% |      172155     24.99%     75.07% |      171722     24.93%    100.00% (Unspecified)
system.caches.L0Cache_Controller.S.Store::total       688928                       (Unspecified)
system.caches.L0Cache_Controller.S.Replacement |      875878     24.96%     24.96% |      857440     24.43%     49.39% |      896438     25.54%     74.94% |      879506     25.06%    100.00% (Unspecified)
system.caches.L0Cache_Controller.S.Replacement::total      3509262                       (Unspecified)
system.caches.L0Cache_Controller.S.Inv   |      159505     25.40%     25.40% |      151427     24.11%     49.51% |      158646     25.26%     74.77% |      158482     25.23%    100.00% (Unspecified)
system.caches.L0Cache_Controller.S.Inv::total       628060                       (Unspecified)
system.caches.L0Cache_Controller.M.Load  |     1417121     25.38%     25.38% |     1384546     24.80%     50.19% |     1383386     24.78%     74.97% |     1397531     25.03%    100.00% (Unspecified)
system.caches.L0Cache_Controller.M.Load::total      5582584                       (Unspecified)
system.caches.L0Cache_Controller.M.Store |     1465129     25.58%     25.58% |     1430400     24.97%     50.55% |     1393231     24.33%     74.88% |     1438786     25.12%    100.00% (Unspecified)
system.caches.L0Cache_Controller.M.Store::total      5727546                       (Unspecified)
system.caches.L0Cache_Controller.M.Replacement |      345116     24.40%     24.40% |      341457     24.14%     48.55% |      384919     27.22%     75.76% |      342774     24.24%    100.00% (Unspecified)
system.caches.L0Cache_Controller.M.Replacement::total      1414266                       (Unspecified)
system.caches.L0Cache_Controller.M.Inv   |       31086     25.48%     25.48% |       29244     23.97%     49.44% |       31417     25.75%     75.19% |       30276     24.81%    100.00% (Unspecified)
system.caches.L0Cache_Controller.M.Inv::total       122023                       (Unspecified)
system.caches.L1Cache_Controller.Load    |     1238664     25.03%     25.03% |     1211012     24.47%     49.51% |     1257107     25.41%     74.91% |     1241418     25.09%    100.00% (Unspecified)
system.caches.L1Cache_Controller.Load::total      4948201                       (Unspecified)
system.caches.L1Cache_Controller.Store   |      346086     24.47%     24.47% |      340559     24.08%     48.54% |      386525     27.32%     75.87% |      341400     24.13%    100.00% (Unspecified)
system.caches.L1Cache_Controller.Store::total      1414570                       (Unspecified)
system.caches.L1Cache_Controller.PutM    |      345116     24.40%     24.40% |      341457     24.14%     48.55% |      384919     27.22%     75.76% |      342774     24.24%    100.00% (Unspecified)
system.caches.L1Cache_Controller.PutM::total      1414266                       (Unspecified)
system.caches.L1Cache_Controller.Replacement |     2043643     25.42%     25.42% |     1989646     24.74%     50.16% |     2004897     24.93%     75.09% |     2002634     24.91%    100.00% (Unspecified)
system.caches.L1Cache_Controller.Replacement::total      8040820                       (Unspecified)
system.caches.L1Cache_Controller.FwdGetM |       26455     22.93%     22.93% |       26954     23.37%     46.30% |       31166     27.02%     73.32% |       30774     26.68%    100.00% (Unspecified)
system.caches.L1Cache_Controller.FwdGetM::total       115349                       (Unspecified)
system.caches.L1Cache_Controller.Inv     |        3282     18.44%     18.44% |        3404     19.12%     37.56% |        5565     31.26%     68.83% |        5549     31.17%    100.00% (Unspecified)
system.caches.L1Cache_Controller.Inv::total        17800                       (Unspecified)
system.caches.L1Cache_Controller.PutAck  |     1000738     25.39%     25.39% |      975954     24.76%     50.15% |      982486     24.93%     75.07% |      982566     24.93%    100.00% (Unspecified)
system.caches.L1Cache_Controller.PutAck::total      3941744                       (Unspecified)
system.caches.L1Cache_Controller.DataDirNoAcks |     1175291     25.27%     25.27% |     1150061     24.73%     50.00% |     1163615     25.02%     75.02% |     1161997     24.98%    100.00% (Unspecified)
system.caches.L1Cache_Controller.DataDirNoAcks::total      4650964                       (Unspecified)
system.caches.L1Cache_Controller.DataDirAcks |          24     39.34%     39.34% |          12     19.67%     59.02% |          12     19.67%     78.69% |          13     21.31%    100.00% (Unspecified)
system.caches.L1Cache_Controller.DataDirAcks::total           61                       (Unspecified)
system.caches.L1Cache_Controller.DataOwner |       17001     26.36%     26.36% |       16643     25.81%     52.17% |       14937     23.16%     75.33% |       15912     24.67%    100.00% (Unspecified)
system.caches.L1Cache_Controller.DataOwner::total        64493                       (Unspecified)
system.caches.L1Cache_Controller.InvAck  |        5556     31.32%     31.32% |        5370     30.27%     61.59% |        3329     18.77%     80.36% |        3484     19.64%    100.00% (Unspecified)
system.caches.L1Cache_Controller.InvAck::total        17739                       (Unspecified)
system.caches.L1Cache_Controller.LastInvAck |          24     39.34%     39.34% |          12     19.67%     59.02% |          12     19.67%     78.69% |          13     21.31%    100.00% (Unspecified)
system.caches.L1Cache_Controller.LastInvAck::total           61                       (Unspecified)
system.caches.L1Cache_Controller.WB_Data |       31086     25.48%     25.48% |       29244     23.97%     49.44% |       31417     25.75%     75.19% |       30276     24.81%    100.00% (Unspecified)
system.caches.L1Cache_Controller.WB_Data::total       122023                       (Unspecified)
system.caches.L1Cache_Controller.I.Load  |      857405     25.32%     25.32% |      836556     24.70%     50.02% |      846188     24.99%     75.01% |      846445     24.99%    100.00% (Unspecified)
system.caches.L1Cache_Controller.I.Load::total      3386594                       (Unspecified)
system.caches.L1Cache_Controller.I.Store |      161273     25.28%     25.28% |      157757     24.73%     50.02% |      159649     25.03%     75.05% |      159165     24.95%    100.00% (Unspecified)
system.caches.L1Cache_Controller.I.Store::total       637844                       (Unspecified)
system.caches.L1Cache_Controller.IS_D.FwdGetM |         135     18.15%     18.15% |         205     27.55%     45.70% |         226     30.38%     76.08% |         178     23.92%    100.00% (Unspecified)
system.caches.L1Cache_Controller.IS_D.FwdGetM::total          744                       (Unspecified)
system.caches.L1Cache_Controller.IS_D.DataDirNoAcks |      845107     25.29%     25.29% |      824660     24.68%     49.97% |      836187     25.02%     75.00% |      835484     25.00%    100.00% (Unspecified)
system.caches.L1Cache_Controller.IS_D.DataDirNoAcks::total      3341438                       (Unspecified)
system.caches.L1Cache_Controller.IS_D.DataOwner |       12298     27.23%     27.23% |       11896     26.34%     53.58% |       10001     22.15%     75.73% |       10961     24.27%    100.00% (Unspecified)
system.caches.L1Cache_Controller.IS_D.DataOwner::total        45156                       (Unspecified)
system.caches.L1Cache_Controller.IM_AD.FwdGetM |         254     21.27%     21.27% |         280     23.45%     44.72% |         317     26.55%     71.27% |         343     28.73%    100.00% (Unspecified)
system.caches.L1Cache_Controller.IM_AD.FwdGetM::total         1194                       (Unspecified)
system.caches.L1Cache_Controller.IM_AD.DataDirNoAcks |      156555     25.31%     25.31% |      153002     24.74%     50.05% |      154710     25.01%     75.07% |      154210     24.93%    100.00% (Unspecified)
system.caches.L1Cache_Controller.IM_AD.DataDirNoAcks::total       618477                       (Unspecified)
system.caches.L1Cache_Controller.IM_AD.DataDirAcks |          17     43.59%     43.59% |           8     20.51%     64.10% |           7     17.95%     82.05% |           7     17.95%    100.00% (Unspecified)
system.caches.L1Cache_Controller.IM_AD.DataDirAcks::total           39                       (Unspecified)
system.caches.L1Cache_Controller.IM_AD.DataOwner |        4703     24.32%     24.32% |        4747     24.55%     48.87% |        4936     25.53%     74.40% |        4951     25.60%    100.00% (Unspecified)
system.caches.L1Cache_Controller.IM_AD.DataOwner::total        19337                       (Unspecified)
system.caches.L1Cache_Controller.IM_AD.InvAck |        4596     32.17%     32.17% |        4860     34.02%     66.19% |        2236     15.65%     81.84% |        2595     18.16%    100.00% (Unspecified)
system.caches.L1Cache_Controller.IM_AD.InvAck::total        14287                       (Unspecified)
system.caches.L1Cache_Controller.IM_A.LastInvAck |          17     43.59%     43.59% |           8     20.51%     64.10% |           7     17.95%     82.05% |           7     17.95%    100.00% (Unspecified)
system.caches.L1Cache_Controller.IM_A.LastInvAck::total           39                       (Unspecified)
system.caches.L1Cache_Controller.S.Load  |      363428     24.47%     24.47% |      356195     23.99%     48.46% |      391094     26.34%     74.80% |      374269     25.20%    100.00% (Unspecified)
system.caches.L1Cache_Controller.S.Load::total      1484986                       (Unspecified)
system.caches.L1Cache_Controller.S.Store |      173638     25.13%     25.13% |      172403     24.95%     50.07% |      172727     24.99%     75.07% |      172312     24.93%    100.00% (Unspecified)
system.caches.L1Cache_Controller.S.Store::total       691080                       (Unspecified)
system.caches.L1Cache_Controller.S.Replacement |      668093     25.38%     25.38% |      648759     24.65%     50.03% |      657822     24.99%     75.02% |      657531     24.98%    100.00% (Unspecified)
system.caches.L1Cache_Controller.S.Replacement::total      2632205                       (Unspecified)
system.caches.L1Cache_Controller.S.Inv   |        3268     18.41%     18.41% |        3401     19.16%     37.57% |        5541     31.21%     68.78% |        5542     31.22%    100.00% (Unspecified)
system.caches.L1Cache_Controller.S.Inv::total        17752                       (Unspecified)
system.caches.L1Cache_Controller.SM_AD.Inv |           2     22.22%     22.22% |           0      0.00%     22.22% |           4     44.44%     66.67% |           3     33.33%    100.00% (Unspecified)
system.caches.L1Cache_Controller.SM_AD.Inv::total            9                       (Unspecified)
system.caches.L1Cache_Controller.SM_AD.DataDirNoAcks |      173629     25.13%     25.13% |      172399     24.95%     50.07% |      172718     24.99%     75.07% |      172303     24.93%    100.00% (Unspecified)
system.caches.L1Cache_Controller.SM_AD.DataDirNoAcks::total       691049                       (Unspecified)
system.caches.L1Cache_Controller.SM_AD.DataDirAcks |           7     31.82%     31.82% |           4     18.18%     50.00% |           5     22.73%     72.73% |           6     27.27%    100.00% (Unspecified)
system.caches.L1Cache_Controller.SM_AD.DataDirAcks::total           22                       (Unspecified)
system.caches.L1Cache_Controller.SM_AD.InvAck |         960     27.81%     27.81% |         510     14.77%     42.58% |        1093     31.66%     74.25% |         889     25.75%    100.00% (Unspecified)
system.caches.L1Cache_Controller.SM_AD.InvAck::total         3452                       (Unspecified)
system.caches.L1Cache_Controller.SM_A.LastInvAck |           7     31.82%     31.82% |           4     18.18%     50.00% |           5     22.73%     72.73% |           6     27.27%    100.00% (Unspecified)
system.caches.L1Cache_Controller.SM_A.LastInvAck::total           22                       (Unspecified)
system.caches.L1Cache_Controller.M.Load  |       17831     23.27%     23.27% |       18261     23.83%     47.10% |       19825     25.87%     72.98% |       20704     27.02%    100.00% (Unspecified)
system.caches.L1Cache_Controller.M.Load::total        76621                       (Unspecified)
system.caches.L1Cache_Controller.M.Store |       11175     13.05%     13.05% |       10399     12.14%     25.19% |       54149     63.22%     88.41% |        9923     11.59%    100.00% (Unspecified)
system.caches.L1Cache_Controller.M.Store::total        85646                       (Unspecified)
system.caches.L1Cache_Controller.M.Replacement |      332645     25.40%     25.40% |      327195     24.99%     50.39% |      324664     24.79%     75.18% |      325035     24.82%    100.00% (Unspecified)
system.caches.L1Cache_Controller.M.Replacement::total      1309539                       (Unspecified)
system.caches.L1Cache_Controller.M.FwdGetM |       14544     22.56%     22.56% |       14837     23.02%     45.58% |       17691     27.45%     73.03% |       17382     26.97%    100.00% (Unspecified)
system.caches.L1Cache_Controller.M.FwdGetM::total        64454                       (Unspecified)
system.caches.L1Cache_Controller.M_P.PutM |      345109     24.40%     24.40% |      341456     24.14%     48.55% |      384916     27.22%     75.76% |      342766     24.24%    100.00% (Unspecified)
system.caches.L1Cache_Controller.M_P.PutM::total      1414247                       (Unspecified)
system.caches.L1Cache_Controller.M_P.Replacement |       19741     26.81%     26.81% |       17717     24.06%     50.87% |       18645     25.32%     76.19% |       17534     23.81%    100.00% (Unspecified)
system.caches.L1Cache_Controller.M_P.Replacement::total        73637                       (Unspecified)
system.caches.L1Cache_Controller.M_P.FwdGetM |       11351     23.45%     23.45% |       11528     23.82%     47.27% |       12775     26.39%     73.66% |       12748     26.34%    100.00% (Unspecified)
system.caches.L1Cache_Controller.M_P.FwdGetM::total        48402                       (Unspecified)
system.caches.L1Cache_Controller.M_P.WB_Data |           1     33.33%     33.33% |           0      0.00%     33.33% |           0      0.00%     33.33% |           2     66.67%    100.00% (Unspecified)
system.caches.L1Cache_Controller.M_P.WB_Data::total            3                       (Unspecified)
system.caches.L1Cache_Controller.MP_D.PutM |           7     36.84%     36.84% |           1      5.26%     42.11% |           3     15.79%     57.89% |           8     42.11%    100.00% (Unspecified)
system.caches.L1Cache_Controller.MP_D.PutM::total           19                       (Unspecified)
system.caches.L1Cache_Controller.MP_D.Replacement |       19773     26.81%     26.81% |       17733     24.05%     50.86% |       18689     25.34%     76.21% |       17545     23.79%    100.00% (Unspecified)
system.caches.L1Cache_Controller.MP_D.Replacement::total        73740                       (Unspecified)
system.caches.L1Cache_Controller.MP_D.FwdGetM |         159     30.81%     30.81% |         101     19.57%     50.39% |         138     26.74%     77.13% |         118     22.87%    100.00% (Unspecified)
system.caches.L1Cache_Controller.MP_D.FwdGetM::total          516                       (Unspecified)
system.caches.L1Cache_Controller.MP_D.WB_Data |       31085     25.48%     25.48% |       29244     23.97%     49.44% |       31417     25.75%     75.19% |       30274     24.81%    100.00% (Unspecified)
system.caches.L1Cache_Controller.MP_D.WB_Data::total       122020                       (Unspecified)
system.caches.L1Cache_Controller.MI_A.Replacement |      333385     25.41%     25.41% |      327783     24.98%     50.39% |      325335     24.79%     75.18% |      325726     24.82%    100.00% (Unspecified)
system.caches.L1Cache_Controller.MI_A.Replacement::total      1312229                       (Unspecified)
system.caches.L1Cache_Controller.MI_A.FwdGetM |          12     30.77%     30.77% |           3      7.69%     38.46% |          19     48.72%     87.18% |           5     12.82%    100.00% (Unspecified)
system.caches.L1Cache_Controller.MI_A.FwdGetM::total           39                       (Unspecified)
system.caches.L1Cache_Controller.MI_A.PutAck |      332633     25.40%     25.40% |      327192     24.99%     50.39% |      324645     24.79%     75.18% |      325030     24.82%    100.00% (Unspecified)
system.caches.L1Cache_Controller.MI_A.PutAck::total      1309500                       (Unspecified)
system.caches.L1Cache_Controller.SI_A.Replacement |      670006     25.38%     25.38% |      650459     24.64%     50.03% |      659742     25.00%     75.02% |      659263     24.98%    100.00% (Unspecified)
system.caches.L1Cache_Controller.SI_A.Replacement::total      2639470                       (Unspecified)
system.caches.L1Cache_Controller.SI_A.Inv |          12     30.77%     30.77% |           3      7.69%     38.46% |          20     51.28%     89.74% |           4     10.26%    100.00% (Unspecified)
system.caches.L1Cache_Controller.SI_A.Inv::total           39                       (Unspecified)
system.caches.L1Cache_Controller.SI_A.PutAck |      668081     25.38%     25.38% |      648756     24.65%     50.03% |      657802     24.99%     75.02% |      657527     24.98%    100.00% (Unspecified)
system.caches.L1Cache_Controller.SI_A.PutAck::total      2632166                       (Unspecified)
system.caches.L1Cache_Controller.II_A.PutAck |          24     30.77%     30.77% |           6      7.69%     38.46% |          39     50.00%     88.46% |           9     11.54%    100.00% (Unspecified)
system.caches.L1Cache_Controller.II_A.PutAck::total           78                       (Unspecified)
system.caches.Directory_Controller.GetS       3386594      0.00%      0.00% (Unspecified)
system.caches.Directory_Controller.GetM       1328924      0.00%      0.00% (Unspecified)
system.caches.Directory_Controller.PutSNotLast       510341      0.00%      0.00% (Unspecified)
system.caches.Directory_Controller.PutSNotLastNonSharer           39      0.00%      0.00% (Unspecified)
system.caches.Directory_Controller.PutSLast       684906      0.00%      0.00% (Unspecified)
system.caches.Directory_Controller.PutSLastWT      1436919      0.00%      0.00% (Unspecified)
system.caches.Directory_Controller.PutMOwner       362619      0.00%      0.00% (Unspecified)
system.caches.Directory_Controller.PutMOwnerWT       946881      0.00%      0.00% (Unspecified)
system.caches.Directory_Controller.PutMNonOwner           39      0.00%      0.00% (Unspecified)
system.caches.Directory_Controller.Sync        213036      0.00%      0.00% (Unspecified)
system.caches.Directory_Controller.MemData      2523571      0.00%      0.00% (Unspecified)
system.caches.Directory_Controller.LastMemAck      2596836      0.00%      0.00% (Unspecified)
system.caches.Directory_Controller.I.GetS      1972251      0.00%      0.00% (Unspecified)
system.caches.Directory_Controller.I.GetM       551320      0.00%      0.00% (Unspecified)
system.caches.Directory_Controller.S.GetS       514398      0.00%      0.00% (Unspecified)
system.caches.Directory_Controller.S.GetM       704993      0.00%      0.00% (Unspecified)
system.caches.Directory_Controller.S.PutSNotLast       510341      0.00%      0.00% (Unspecified)
system.caches.Directory_Controller.S.PutSLast       684906      0.00%      0.00% (Unspecified)
system.caches.Directory_Controller.S.PutSLastWT      1436919      0.00%      0.00% (Unspecified)
system.caches.Directory_Controller.M.GetS        45156      0.00%      0.00% (Unspecified)
system.caches.Directory_Controller.M.GetM        19337      0.00%      0.00% (Unspecified)
system.caches.Directory_Controller.M.PutSNotLastNonSharer           39      0.00%      0.00% (Unspecified)
system.caches.Directory_Controller.M.PutMOwner       362619      0.00%      0.00% (Unspecified)
system.caches.Directory_Controller.M.PutMOwnerWT       946881      0.00%      0.00% (Unspecified)
system.caches.Directory_Controller.M.PutMNonOwner           39      0.00%      0.00% (Unspecified)
system.caches.Directory_Controller.LLCOnly.GetS       854789      0.00%      0.00% (Unspecified)
system.caches.Directory_Controller.LLCOnly.GetM        53274      0.00%      0.00% (Unspecified)
system.caches.Directory_Controller.LLCOnly.Sync       213036      0.00%      0.00% (Unspecified)
system.caches.Directory_Controller.LLCOnly_m.LastMemAck      1649955      0.00%      0.00% (Unspecified)
system.caches.Directory_Controller.S_m.MemData      1972251      0.00%      0.00% (Unspecified)
system.caches.Directory_Controller.M_m.MemData       551320      0.00%      0.00% (Unspecified)
system.caches.Directory_Controller.MI_m.LastMemAck       946881      0.00%      0.00% (Unspecified)
system.caches.RequestType.LD.latency_hist_seqr::bucket_size          128                       (Unspecified)
system.caches.RequestType.LD.latency_hist_seqr::max_bucket         1279                       (Unspecified)
system.caches.RequestType.LD.latency_hist_seqr::samples     32265599                       (Unspecified)
system.caches.RequestType.LD.latency_hist_seqr::mean    53.159858                       (Unspecified)
system.caches.RequestType.LD.latency_hist_seqr::gmean     1.966098                       (Unspecified)
system.caches.RequestType.LD.latency_hist_seqr::stdev   182.968836                       (Unspecified)
system.caches.RequestType.LD.latency_hist_seqr |    29573914     91.66%     91.66% |      304698      0.94%     92.60% |      228437      0.71%     93.31% |      321076      1.00%     94.31% |      477920      1.48%     95.79% |      614664      1.91%     97.69% |      483731      1.50%     99.19% |      251304      0.78%     99.97% |        9855      0.03%    100.00% |           0      0.00%    100.00% (Unspecified)
system.caches.RequestType.LD.latency_hist_seqr::total     32265599                       (Unspecified)
system.caches.RequestType.LD.hit_latency_hist_seqr::bucket_size            1                       (Unspecified)
system.caches.RequestType.LD.hit_latency_hist_seqr::max_bucket            9                       (Unspecified)
system.caches.RequestType.LD.hit_latency_hist_seqr::samples     27771692                       (Unspecified)
system.caches.RequestType.LD.hit_latency_hist_seqr::mean            1                       (Unspecified)
system.caches.RequestType.LD.hit_latency_hist_seqr::gmean            1                       (Unspecified)
system.caches.RequestType.LD.hit_latency_hist_seqr |           0      0.00%      0.00% |    27771692    100.00%    100.00% |           0      0.00%    100.00% |           0      0.00%    100.00% |           0      0.00%    100.00% |           0      0.00%    100.00% |           0      0.00%    100.00% |           0      0.00%    100.00% |           0      0.00%    100.00% |           0      0.00%    100.00% (Unspecified)
system.caches.RequestType.LD.hit_latency_hist_seqr::total     27771692                       (Unspecified)
system.caches.RequestType.LD.miss_latency_hist_seqr::bucket_size          128                       (Unspecified)
system.caches.RequestType.LD.miss_latency_hist_seqr::max_bucket         1279                       (Unspecified)
system.caches.RequestType.LD.miss_latency_hist_seqr::samples      4493907                       (Unspecified)
system.caches.RequestType.LD.miss_latency_hist_seqr::mean   375.500198                       (Unspecified)
system.caches.RequestType.LD.miss_latency_hist_seqr::gmean   128.245521                       (Unspecified)
system.caches.RequestType.LD.miss_latency_hist_seqr::stdev   345.901376                       (Unspecified)
system.caches.RequestType.LD.miss_latency_hist_seqr |     1802222     40.10%     40.10% |      304698      6.78%     46.88% |      228437      5.08%     51.97% |      321076      7.14%     59.11% |      477920     10.63%     69.75% |      614664     13.68%     83.42% |      483731     10.76%     94.19% |      251304      5.59%     99.78% |        9855      0.22%    100.00% |           0      0.00%    100.00% (Unspecified)
system.caches.RequestType.LD.miss_latency_hist_seqr::total      4493907                       (Unspecified)
system.caches.RequestType.ST.latency_hist_seqr::bucket_size          128                       (Unspecified)
system.caches.RequestType.ST.latency_hist_seqr::max_bucket         1279                       (Unspecified)
system.caches.RequestType.ST.latency_hist_seqr::samples      7028189                       (Unspecified)
system.caches.RequestType.ST.latency_hist_seqr::mean    87.529228                       (Unspecified)
system.caches.RequestType.ST.latency_hist_seqr::gmean     2.993165                       (Unspecified)
system.caches.RequestType.ST.latency_hist_seqr::stdev   233.055369                       (Unspecified)
system.caches.RequestType.ST.latency_hist_seqr |     5902031     83.98%     83.98% |      300501      4.28%     88.25% |      209920      2.99%     91.24% |      114634      1.63%     92.87% |       50741      0.72%     93.59% |       81185      1.16%     94.75% |      153946      2.19%     96.94% |      212174      3.02%     99.96% |        3057      0.04%    100.00% |           0      0.00%    100.00% (Unspecified)
system.caches.RequestType.ST.latency_hist_seqr::total      7028189                       (Unspecified)
system.caches.RequestType.ST.hit_latency_hist_seqr::bucket_size            1                       (Unspecified)
system.caches.RequestType.ST.hit_latency_hist_seqr::max_bucket            9                       (Unspecified)
system.caches.RequestType.ST.hit_latency_hist_seqr::samples      5635154                       (Unspecified)
system.caches.RequestType.ST.hit_latency_hist_seqr::mean            1                       (Unspecified)
system.caches.RequestType.ST.hit_latency_hist_seqr::gmean            1                       (Unspecified)
system.caches.RequestType.ST.hit_latency_hist_seqr |           0      0.00%      0.00% |     5635154    100.00%    100.00% |           0      0.00%    100.00% |           0      0.00%    100.00% |           0      0.00%    100.00% |           0      0.00%    100.00% |           0      0.00%    100.00% |           0      0.00%    100.00% |           0      0.00%    100.00% |           0      0.00%    100.00% (Unspecified)
system.caches.RequestType.ST.hit_latency_hist_seqr::total      5635154                       (Unspecified)
system.caches.RequestType.ST.miss_latency_hist_seqr::bucket_size          128                       (Unspecified)
system.caches.RequestType.ST.miss_latency_hist_seqr::max_bucket         1279                       (Unspecified)
system.caches.RequestType.ST.miss_latency_hist_seqr::samples      1393035                       (Unspecified)
system.caches.RequestType.ST.miss_latency_hist_seqr::mean   437.560292                       (Unspecified)
system.caches.RequestType.ST.miss_latency_hist_seqr::gmean   252.459118                       (Unspecified)
system.caches.RequestType.ST.miss_latency_hist_seqr::stdev   348.168556                       (Unspecified)
system.caches.RequestType.ST.miss_latency_hist_seqr |      266877     19.16%     19.16% |      300501     21.57%     40.73% |      209920     15.07%     55.80% |      114634      8.23%     64.03% |       50741      3.64%     67.67% |       81185      5.83%     73.50% |      153946     11.05%     84.55% |      212174     15.23%     99.78% |        3057      0.22%    100.00% |           0      0.00%    100.00% (Unspecified)
system.caches.RequestType.ST.miss_latency_hist_seqr::total      1393035                       (Unspecified)
system.caches.RequestType.IFETCH.latency_hist_seqr::bucket_size          128                       (Unspecified)
system.caches.RequestType.IFETCH.latency_hist_seqr::max_bucket         1279                       (Unspecified)
system.caches.RequestType.IFETCH.latency_hist_seqr::samples    141353650                       (Unspecified)
system.caches.RequestType.IFETCH.latency_hist_seqr::mean     2.034480                       (Unspecified)
system.caches.RequestType.IFETCH.latency_hist_seqr::gmean     1.016825                       (Unspecified)
system.caches.RequestType.IFETCH.latency_hist_seqr::stdev    23.818926                       (Unspecified)
system.caches.RequestType.IFETCH.latency_hist_seqr |   141062538     99.79%     99.79% |       56919      0.04%     99.83% |       51721      0.04%     99.87% |       56717      0.04%     99.91% |       56189      0.04%     99.95% |       40013      0.03%     99.98% |       19429      0.01%     99.99% |       10064      0.01%    100.00% |          60      0.00%    100.00% |           0      0.00%    100.00% (Unspecified)
system.caches.RequestType.IFETCH.latency_hist_seqr::total    141353650                       (Unspecified)
system.caches.RequestType.IFETCH.hit_latency_hist_seqr::bucket_size            1                       (Unspecified)
system.caches.RequestType.IFETCH.hit_latency_hist_seqr::max_bucket            9                       (Unspecified)
system.caches.RequestType.IFETCH.hit_latency_hist_seqr::samples    140899356                       (Unspecified)
system.caches.RequestType.IFETCH.hit_latency_hist_seqr::mean            1                       (Unspecified)
system.caches.RequestType.IFETCH.hit_latency_hist_seqr::gmean            1                       (Unspecified)
system.caches.RequestType.IFETCH.hit_latency_hist_seqr |           0      0.00%      0.00% |   140899356    100.00%    100.00% |           0      0.00%    100.00% |           0      0.00%    100.00% |           0      0.00%    100.00% |           0      0.00%    100.00% |           0      0.00%    100.00% |           0      0.00%    100.00% |           0      0.00%    100.00% |           0      0.00%    100.00% (Unspecified)
system.caches.RequestType.IFETCH.hit_latency_hist_seqr::total    140899356                       (Unspecified)
system.caches.RequestType.IFETCH.miss_latency_hist_seqr::bucket_size          128                       (Unspecified)
system.caches.RequestType.IFETCH.miss_latency_hist_seqr::max_bucket         1279                       (Unspecified)
system.caches.RequestType.IFETCH.miss_latency_hist_seqr::samples       454294                       (Unspecified)
system.caches.RequestType.IFETCH.miss_latency_hist_seqr::mean   322.878653                       (Unspecified)
system.caches.RequestType.IFETCH.miss_latency_hist_seqr::gmean   179.728455                       (Unspecified)
system.caches.RequestType.IFETCH.miss_latency_hist_seqr::stdev   270.657691                       (Unspecified)
system.caches.RequestType.IFETCH.miss_latency_hist_seqr |      163182     35.92%     35.92% |       56919     12.53%     48.45% |       51721     11.38%     59.83% |       56717     12.48%     72.32% |       56189     12.37%     84.69% |       40013      8.81%     93.49% |       19429      4.28%     97.77% |       10064      2.22%     99.99% |          60      0.01%    100.00% |           0      0.00%    100.00% (Unspecified)
system.caches.RequestType.IFETCH.miss_latency_hist_seqr::total       454294                       (Unspecified)
system.caches.RequestType.RMW_Read.latency_hist_seqr::bucket_size          128                       (Unspecified)
system.caches.RequestType.RMW_Read.latency_hist_seqr::max_bucket         1279                       (Unspecified)
system.caches.RequestType.RMW_Read.latency_hist_seqr::samples        13297                       (Unspecified)
system.caches.RequestType.RMW_Read.latency_hist_seqr::mean    26.810860                       (Unspecified)
system.caches.RequestType.RMW_Read.latency_hist_seqr::gmean     2.320444                       (Unspecified)
system.caches.RequestType.RMW_Read.latency_hist_seqr::stdev    93.189410                       (Unspecified)
system.caches.RequestType.RMW_Read.latency_hist_seqr |       12395     93.22%     93.22% |         421      3.17%     96.38% |         215      1.62%     98.00% |         114      0.86%     98.86% |          94      0.71%     99.56% |          41      0.31%     99.87% |          15      0.11%     99.98% |           2      0.02%    100.00% |           0      0.00%    100.00% |           0      0.00%    100.00% (Unspecified)
system.caches.RequestType.RMW_Read.latency_hist_seqr::total        13297                       (Unspecified)
system.caches.RequestType.RMW_Read.hit_latency_hist_seqr::bucket_size            1                       (Unspecified)
system.caches.RequestType.RMW_Read.hit_latency_hist_seqr::max_bucket            9                       (Unspecified)
system.caches.RequestType.RMW_Read.hit_latency_hist_seqr::samples        10393                       (Unspecified)
system.caches.RequestType.RMW_Read.hit_latency_hist_seqr::mean            1                       (Unspecified)
system.caches.RequestType.RMW_Read.hit_latency_hist_seqr::gmean            1                       (Unspecified)
system.caches.RequestType.RMW_Read.hit_latency_hist_seqr |           0      0.00%      0.00% |       10393    100.00%    100.00% |           0      0.00%    100.00% |           0      0.00%    100.00% |           0      0.00%    100.00% |           0      0.00%    100.00% |           0      0.00%    100.00% |           0      0.00%    100.00% |           0      0.00%    100.00% |           0      0.00%    100.00% (Unspecified)
system.caches.RequestType.RMW_Read.hit_latency_hist_seqr::total        10393                       (Unspecified)
system.caches.RequestType.RMW_Read.miss_latency_hist_seqr::bucket_size          128                       (Unspecified)
system.caches.RequestType.RMW_Read.miss_latency_hist_seqr::max_bucket         1279                       (Unspecified)
system.caches.RequestType.RMW_Read.miss_latency_hist_seqr::samples         2904                       (Unspecified)
system.caches.RequestType.RMW_Read.miss_latency_hist_seqr::mean   119.184229                       (Unspecified)
system.caches.RequestType.RMW_Read.miss_latency_hist_seqr::gmean    47.195180                       (Unspecified)
system.caches.RequestType.RMW_Read.miss_latency_hist_seqr::stdev   169.864302                       (Unspecified)
system.caches.RequestType.RMW_Read.miss_latency_hist_seqr |        2002     68.94%     68.94% |         421     14.50%     83.44% |         215      7.40%     90.84% |         114      3.93%     94.77% |          94      3.24%     98.00% |          41      1.41%     99.41% |          15      0.52%     99.93% |           2      0.07%    100.00% |           0      0.00%    100.00% |           0      0.00%    100.00% (Unspecified)
system.caches.RequestType.RMW_Read.miss_latency_hist_seqr::total         2904                       (Unspecified)
system.caches.RequestType.Locked_RMW_Read.latency_hist_seqr::bucket_size           64                       (Unspecified)
system.caches.RequestType.Locked_RMW_Read.latency_hist_seqr::max_bucket          639                       (Unspecified)
system.caches.RequestType.Locked_RMW_Read.latency_hist_seqr::samples        50315                       (Unspecified)
system.caches.RequestType.Locked_RMW_Read.latency_hist_seqr::mean    42.075822                       (Unspecified)
system.caches.RequestType.Locked_RMW_Read.latency_hist_seqr::gmean     4.982747                       (Unspecified)
system.caches.RequestType.Locked_RMW_Read.latency_hist_seqr::stdev    83.134145                       (Unspecified)
system.caches.RequestType.Locked_RMW_Read.latency_hist_seqr |       42412     84.29%     84.29% |        1565      3.11%     87.40% |        2349      4.67%     92.07% |        1771      3.52%     95.59% |         979      1.95%     97.54% |         866      1.72%     99.26% |         242      0.48%     99.74% |         126      0.25%     99.99% |           5      0.01%    100.00% |           0      0.00%    100.00% (Unspecified)
system.caches.RequestType.Locked_RMW_Read.latency_hist_seqr::total        50315                       (Unspecified)
system.caches.RequestType.Locked_RMW_Read.hit_latency_hist_seqr::bucket_size            1                       (Unspecified)
system.caches.RequestType.Locked_RMW_Read.hit_latency_hist_seqr::max_bucket            9                       (Unspecified)
system.caches.RequestType.Locked_RMW_Read.hit_latency_hist_seqr::samples        31684                       (Unspecified)
system.caches.RequestType.Locked_RMW_Read.hit_latency_hist_seqr::mean            1                       (Unspecified)
system.caches.RequestType.Locked_RMW_Read.hit_latency_hist_seqr::gmean            1                       (Unspecified)
system.caches.RequestType.Locked_RMW_Read.hit_latency_hist_seqr |           0      0.00%      0.00% |       31684    100.00%    100.00% |           0      0.00%    100.00% |           0      0.00%    100.00% |           0      0.00%    100.00% |           0      0.00%    100.00% |           0      0.00%    100.00% |           0      0.00%    100.00% |           0      0.00%    100.00% |           0      0.00%    100.00% (Unspecified)
system.caches.RequestType.Locked_RMW_Read.hit_latency_hist_seqr::total        31684                       (Unspecified)
system.caches.RequestType.Locked_RMW_Read.miss_latency_hist_seqr::bucket_size           64                       (Unspecified)
system.caches.RequestType.Locked_RMW_Read.miss_latency_hist_seqr::max_bucket          639                       (Unspecified)
system.caches.RequestType.Locked_RMW_Read.miss_latency_hist_seqr::samples        18631                       (Unspecified)
system.caches.RequestType.Locked_RMW_Read.miss_latency_hist_seqr::mean   111.929633                       (Unspecified)
system.caches.RequestType.Locked_RMW_Read.miss_latency_hist_seqr::gmean    76.487233                       (Unspecified)
system.caches.RequestType.Locked_RMW_Read.miss_latency_hist_seqr::stdev   104.479765                       (Unspecified)
system.caches.RequestType.Locked_RMW_Read.miss_latency_hist_seqr |       10728     57.58%     57.58% |        1565      8.40%     65.98% |        2349     12.61%     78.59% |        1771      9.51%     88.10% |         979      5.25%     93.35% |         866      4.65%     98.00% |         242      1.30%     99.30% |         126      0.68%     99.97% |           5      0.03%    100.00% |           0      0.00%    100.00% (Unspecified)
system.caches.RequestType.Locked_RMW_Read.miss_latency_hist_seqr::total        18631                       (Unspecified)
system.caches.RequestType.Locked_RMW_Write.latency_hist_seqr::bucket_size            1                       (Unspecified)
system.caches.RequestType.Locked_RMW_Write.latency_hist_seqr::max_bucket            9                       (Unspecified)
system.caches.RequestType.Locked_RMW_Write.latency_hist_seqr::samples        50315                       (Unspecified)
system.caches.RequestType.Locked_RMW_Write.latency_hist_seqr::mean            1                       (Unspecified)
system.caches.RequestType.Locked_RMW_Write.latency_hist_seqr::gmean            1                       (Unspecified)
system.caches.RequestType.Locked_RMW_Write.latency_hist_seqr |           0      0.00%      0.00% |       50315    100.00%    100.00% |           0      0.00%    100.00% |           0      0.00%    100.00% |           0      0.00%    100.00% |           0      0.00%    100.00% |           0      0.00%    100.00% |           0      0.00%    100.00% |           0      0.00%    100.00% |           0      0.00%    100.00% (Unspecified)
system.caches.RequestType.Locked_RMW_Write.latency_hist_seqr::total        50315                       (Unspecified)
system.caches.RequestType.Locked_RMW_Write.hit_latency_hist_seqr::bucket_size            1                       (Unspecified)
system.caches.RequestType.Locked_RMW_Write.hit_latency_hist_seqr::max_bucket            9                       (Unspecified)
system.caches.RequestType.Locked_RMW_Write.hit_latency_hist_seqr::samples        50315                       (Unspecified)
system.caches.RequestType.Locked_RMW_Write.hit_latency_hist_seqr::mean            1                       (Unspecified)
system.caches.RequestType.Locked_RMW_Write.hit_latency_hist_seqr::gmean            1                       (Unspecified)
system.caches.RequestType.Locked_RMW_Write.hit_latency_hist_seqr |           0      0.00%      0.00% |       50315    100.00%    100.00% |           0      0.00%    100.00% |           0      0.00%    100.00% |           0      0.00%    100.00% |           0      0.00%    100.00% |           0      0.00%    100.00% |           0      0.00%    100.00% |           0      0.00%    100.00% |           0      0.00%    100.00% (Unspecified)
system.caches.RequestType.Locked_RMW_Write.hit_latency_hist_seqr::total        50315                       (Unspecified)
system.caches.controllers0.DCache.m_demand_hits            0                       # Number of cache demand hits (Unspecified)
system.caches.controllers0.DCache.m_demand_misses            0                       # Number of cache demand misses (Unspecified)
system.caches.controllers0.DCache.m_demand_accesses            0                       # Number of cache demand accesses (Unspecified)
system.caches.controllers0.ICache.m_demand_hits            0                       # Number of cache demand hits (Unspecified)
system.caches.controllers0.ICache.m_demand_misses            0                       # Number of cache demand misses (Unspecified)
system.caches.controllers0.ICache.m_demand_accesses            0                       # Number of cache demand accesses (Unspecified)
system.caches.controllers0.forwardFromL1.m_buf_msgs    56.168202                       # Average number of messages in buffer (Unspecified)
system.caches.controllers0.forwardFromL1.m_stall_time  5000.399336                       # Average number of cycles messages are stalled in this MB (Unspecified)
system.caches.controllers0.forwardFromL1.m_stall_count            1                       # Number of times messages were stalled (Unspecified)
system.caches.controllers0.mandatoryQueue.m_buf_msgs     0.063770                       # Average number of messages in buffer (Unspecified)
system.caches.controllers0.mandatoryQueue.m_stall_time   999.999999                       # Average number of cycles messages are stalled in this MB (Unspecified)
system.caches.controllers0.power_state.pwrStateResidencyTicks::UNDEFINED 713695487000                       # Cumulative time (in ticks) in various power states (Tick)
system.caches.controllers0.requestToL1.m_buf_msgs     0.002704                       # Average number of messages in buffer (Unspecified)
system.caches.controllers0.requestToL1.m_stall_time   999.999997                       # Average number of cycles messages are stalled in this MB (Unspecified)
system.caches.controllers0.responseFromL1.m_buf_msgs     0.002220                       # Average number of messages in buffer (Unspecified)
system.caches.controllers0.responseFromL1.m_stall_time  4999.999082                       # Average number of cycles messages are stalled in this MB (Unspecified)
system.caches.controllers0.responseToL1.m_buf_msgs     0.000044                       # Average number of messages in buffer (Unspecified)
system.caches.controllers0.responseToL1.m_stall_time   999.977621                       # Average number of cycles messages are stalled in this MB (Unspecified)
system.caches.controllers0.xyzStatsObject.power_state.pwrStateResidencyTicks::UNDEFINED 713695487000                       # Cumulative time (in ticks) in various power states (Tick)
system.caches.controllers1.DCache.m_demand_hits            0                       # Number of cache demand hits (Unspecified)
system.caches.controllers1.DCache.m_demand_misses            0                       # Number of cache demand misses (Unspecified)
system.caches.controllers1.DCache.m_demand_accesses            0                       # Number of cache demand accesses (Unspecified)
system.caches.controllers1.ICache.m_demand_hits            0                       # Number of cache demand hits (Unspecified)
system.caches.controllers1.ICache.m_demand_misses            0                       # Number of cache demand misses (Unspecified)
system.caches.controllers1.ICache.m_demand_accesses            0                       # Number of cache demand accesses (Unspecified)
system.caches.controllers1.forwardFromL1.m_buf_msgs    74.776999                       # Average number of messages in buffer (Unspecified)
system.caches.controllers1.forwardFromL1.m_stall_time  4964.748447                       # Average number of cycles messages are stalled in this MB (Unspecified)
system.caches.controllers1.mandatoryQueue.m_buf_msgs     0.062811                       # Average number of messages in buffer (Unspecified)
system.caches.controllers1.mandatoryQueue.m_stall_time   992.845265                       # Average number of cycles messages are stalled in this MB (Unspecified)
system.caches.controllers1.power_state.pwrStateResidencyTicks::UNDEFINED 713695487000                       # Cumulative time (in ticks) in various power states (Tick)
system.caches.controllers1.requestToL1.m_buf_msgs     0.002652                       # Average number of messages in buffer (Unspecified)
system.caches.controllers1.requestToL1.m_stall_time   992.845264                       # Average number of cycles messages are stalled in this MB (Unspecified)
system.caches.controllers1.responseFromL1.m_buf_msgs     0.002174                       # Average number of messages in buffer (Unspecified)
system.caches.controllers1.responseFromL1.m_stall_time  4964.226129                       # Average number of cycles messages are stalled in this MB (Unspecified)
system.caches.controllers1.responseToL1.m_buf_msgs     0.000041                       # Average number of messages in buffer (Unspecified)
system.caches.controllers1.responseToL1.m_stall_time   992.793386                       # Average number of cycles messages are stalled in this MB (Unspecified)
system.caches.controllers1.xyzStatsObject.power_state.pwrStateResidencyTicks::UNDEFINED 713695487000                       # Cumulative time (in ticks) in various power states (Tick)
system.caches.controllers2.DCache.m_demand_hits            0                       # Number of cache demand hits (Unspecified)
system.caches.controllers2.DCache.m_demand_misses            0                       # Number of cache demand misses (Unspecified)
system.caches.controllers2.DCache.m_demand_accesses            0                       # Number of cache demand accesses (Unspecified)
system.caches.controllers2.ICache.m_demand_hits            0                       # Number of cache demand hits (Unspecified)
system.caches.controllers2.ICache.m_demand_misses            0                       # Number of cache demand misses (Unspecified)
system.caches.controllers2.ICache.m_demand_accesses            0                       # Number of cache demand accesses (Unspecified)
system.caches.controllers2.forwardFromL1.m_buf_msgs    93.556581                       # Average number of messages in buffer (Unspecified)
system.caches.controllers2.forwardFromL1.m_stall_time  4964.330895                       # Average number of cycles messages are stalled in this MB (Unspecified)
system.caches.controllers2.mandatoryQueue.m_buf_msgs     0.063262                       # Average number of messages in buffer (Unspecified)
system.caches.controllers2.mandatoryQueue.m_stall_time   992.764327                       # Average number of cycles messages are stalled in this MB (Unspecified)
system.caches.controllers2.power_state.pwrStateResidencyTicks::UNDEFINED 713695487000                       # Cumulative time (in ticks) in various power states (Tick)
system.caches.controllers2.requestToL1.m_buf_msgs     0.002842                       # Average number of messages in buffer (Unspecified)
system.caches.controllers2.requestToL1.m_stall_time   992.764326                       # Average number of cycles messages are stalled in this MB (Unspecified)
system.caches.controllers2.responseFromL1.m_buf_msgs     0.002303                       # Average number of messages in buffer (Unspecified)
system.caches.controllers2.responseFromL1.m_stall_time  4963.821440                       # Average number of cycles messages are stalled in this MB (Unspecified)
system.caches.controllers2.responseToL1.m_buf_msgs     0.000044                       # Average number of messages in buffer (Unspecified)
system.caches.controllers2.responseToL1.m_stall_time   992.752657                       # Average number of cycles messages are stalled in this MB (Unspecified)
system.caches.controllers2.xyzStatsObject.power_state.pwrStateResidencyTicks::UNDEFINED 713695487000                       # Cumulative time (in ticks) in various power states (Tick)
system.caches.controllers3.DCache.m_demand_hits            0                       # Number of cache demand hits (Unspecified)
system.caches.controllers3.DCache.m_demand_misses            0                       # Number of cache demand misses (Unspecified)
system.caches.controllers3.DCache.m_demand_accesses            0                       # Number of cache demand accesses (Unspecified)
system.caches.controllers3.ICache.m_demand_hits            0                       # Number of cache demand hits (Unspecified)
system.caches.controllers3.ICache.m_demand_misses            0                       # Number of cache demand misses (Unspecified)
system.caches.controllers3.ICache.m_demand_accesses            0                       # Number of cache demand accesses (Unspecified)
system.caches.controllers3.forwardFromL1.m_buf_msgs    87.198322                       # Average number of messages in buffer (Unspecified)
system.caches.controllers3.forwardFromL1.m_stall_time  4964.180660                       # Average number of cycles messages are stalled in this MB (Unspecified)
system.caches.controllers3.forwardFromL1.m_stall_count            2                       # Number of times messages were stalled (Unspecified)
system.caches.controllers3.mandatoryQueue.m_buf_msgs     0.063433                       # Average number of messages in buffer (Unspecified)
system.caches.controllers3.mandatoryQueue.m_stall_time   992.713946                       # Average number of cycles messages are stalled in this MB (Unspecified)
system.caches.controllers3.power_state.pwrStateResidencyTicks::UNDEFINED 713695487000                       # Cumulative time (in ticks) in various power states (Tick)
system.caches.controllers3.requestToL1.m_buf_msgs     0.002698                       # Average number of messages in buffer (Unspecified)
system.caches.controllers3.requestToL1.m_stall_time   992.713944                       # Average number of cycles messages are stalled in this MB (Unspecified)
system.caches.controllers3.responseFromL1.m_buf_msgs     0.002218                       # Average number of messages in buffer (Unspecified)
system.caches.controllers3.responseFromL1.m_stall_time  4963.569533                       # Average number of cycles messages are stalled in this MB (Unspecified)
system.caches.controllers3.responseToL1.m_buf_msgs     0.000042                       # Average number of messages in buffer (Unspecified)
system.caches.controllers3.responseToL1.m_stall_time   992.706891                       # Average number of cycles messages are stalled in this MB (Unspecified)
system.caches.controllers3.xyzStatsObject.power_state.pwrStateResidencyTicks::UNDEFINED 713695487000                       # Cumulative time (in ticks) in various power states (Tick)
system.caches.controllers4.cacheMemory.m_demand_hits            0                       # Number of cache demand hits (Unspecified)
system.caches.controllers4.cacheMemory.m_demand_misses            0                       # Number of cache demand misses (Unspecified)
system.caches.controllers4.cacheMemory.m_demand_accesses            0                       # Number of cache demand accesses (Unspecified)
system.caches.controllers4.forwardFromDir.m_buf_msgs     0.001591                       # Average number of messages in buffer (Unspecified)
system.caches.controllers4.forwardFromDir.m_stall_time  5101.151728                       # Average number of cycles messages are stalled in this MB (Unspecified)
system.caches.controllers4.forwardFromDir.m_stall_count        11899                       # Number of times messages were stalled (Unspecified)
system.caches.controllers4.forwardToL0.m_buf_msgs     0.000984                       # Average number of messages in buffer (Unspecified)
system.caches.controllers4.forwardToL0.m_stall_time   999.987228                       # Average number of cycles messages are stalled in this MB (Unspecified)
system.caches.controllers4.power_state.pwrStateResidencyTicks::UNDEFINED 713695487000                       # Cumulative time (in ticks) in various power states (Tick)
system.caches.controllers4.requestFromL0.m_buf_msgs     0.244587                       # Average number of messages in buffer (Unspecified)
system.caches.controllers4.requestFromL0.m_stall_time 131749.648934                       # Average number of cycles messages are stalled in this MB (Unspecified)
system.caches.controllers4.requestFromL0.m_stall_count      1023164                       # Number of times messages were stalled (Unspecified)
system.caches.controllers4.requestToDir.m_buf_msgs     0.003073                       # Average number of messages in buffer (Unspecified)
system.caches.controllers4.requestToDir.m_stall_time   999.999990                       # Average number of cycles messages are stalled in this MB (Unspecified)
system.caches.controllers4.responseFromDirOrSibling.m_buf_msgs     0.001678                       # Average number of messages in buffer (Unspecified)
system.caches.controllers4.responseFromDirOrSibling.m_stall_time 12913.895210                       # Average number of cycles messages are stalled in this MB (Unspecified)
system.caches.controllers4.responseFromL0.m_buf_msgs     0.000044                       # Average number of messages in buffer (Unspecified)
system.caches.controllers4.responseFromL0.m_stall_time  4999.936938                       # Average number of cycles messages are stalled in this MB (Unspecified)
system.caches.controllers4.responseToDirOrSibling.m_buf_msgs     0.000025                       # Average number of messages in buffer (Unspecified)
system.caches.controllers4.responseToDirOrSibling.m_stall_time   992.845058                       # Average number of cycles messages are stalled in this MB (Unspecified)
system.caches.controllers4.responseToL0.m_buf_msgs     0.002220                       # Average number of messages in buffer (Unspecified)
system.caches.controllers4.responseToL0.m_stall_time   999.999822                       # Average number of cycles messages are stalled in this MB (Unspecified)
system.caches.controllers4.xyzStatsObject.power_state.pwrStateResidencyTicks::UNDEFINED 713695487000                       # Cumulative time (in ticks) in various power states (Tick)
system.caches.controllers5.cacheMemory.m_demand_hits            0                       # Number of cache demand hits (Unspecified)
system.caches.controllers5.cacheMemory.m_demand_misses            0                       # Number of cache demand misses (Unspecified)
system.caches.controllers5.cacheMemory.m_demand_accesses            0                       # Number of cache demand accesses (Unspecified)
system.caches.controllers5.forwardFromDir.m_buf_msgs     0.001561                       # Average number of messages in buffer (Unspecified)
system.caches.controllers5.forwardFromDir.m_stall_time  5093.432578                       # Average number of cycles messages are stalled in this MB (Unspecified)
system.caches.controllers5.forwardFromDir.m_stall_count        12114                       # Number of times messages were stalled (Unspecified)
system.caches.controllers5.forwardToL0.m_buf_msgs     0.000955                       # Average number of messages in buffer (Unspecified)
system.caches.controllers5.forwardToL0.m_stall_time   992.829229                       # Average number of cycles messages are stalled in this MB (Unspecified)
system.caches.controllers5.power_state.pwrStateResidencyTicks::UNDEFINED 713695487000                       # Cumulative time (in ticks) in various power states (Tick)
system.caches.controllers5.requestFromL0.m_buf_msgs     0.244403                       # Average number of messages in buffer (Unspecified)
system.caches.controllers5.requestFromL0.m_stall_time 131876.004396                       # Average number of cycles messages are stalled in this MB (Unspecified)
system.caches.controllers5.requestFromL0.m_stall_count       995975                       # Number of times messages were stalled (Unspecified)
system.caches.controllers5.requestToDir.m_buf_msgs     0.003002                       # Average number of messages in buffer (Unspecified)
system.caches.controllers5.requestToDir.m_stall_time   992.845257                       # Average number of cycles messages are stalled in this MB (Unspecified)
system.caches.controllers5.responseFromDirOrSibling.m_buf_msgs     0.001642                       # Average number of messages in buffer (Unspecified)
system.caches.controllers5.responseFromDirOrSibling.m_stall_time 12823.474432                       # Average number of cycles messages are stalled in this MB (Unspecified)
system.caches.controllers5.responseFromL0.m_buf_msgs     0.000041                       # Average number of messages in buffer (Unspecified)
system.caches.controllers5.responseFromL0.m_stall_time  4964.650682                       # Average number of cycles messages are stalled in this MB (Unspecified)
system.caches.controllers5.responseToDirOrSibling.m_buf_msgs     0.000026                       # Average number of messages in buffer (Unspecified)
system.caches.controllers5.responseToDirOrSibling.m_stall_time   992.758423                       # Average number of cycles messages are stalled in this MB (Unspecified)
system.caches.controllers5.responseToL0.m_buf_msgs     0.002174                       # Average number of messages in buffer (Unspecified)
system.caches.controllers5.responseToL0.m_stall_time   992.845231                       # Average number of cycles messages are stalled in this MB (Unspecified)
system.caches.controllers5.xyzStatsObject.power_state.pwrStateResidencyTicks::UNDEFINED 713695487000                       # Cumulative time (in ticks) in various power states (Tick)
system.caches.controllers6.cacheMemory.m_demand_hits            0                       # Number of cache demand hits (Unspecified)
system.caches.controllers6.cacheMemory.m_demand_misses            0                       # Number of cache demand misses (Unspecified)
system.caches.controllers6.cacheMemory.m_demand_accesses            0                       # Number of cache demand accesses (Unspecified)
system.caches.controllers6.forwardFromDir.m_buf_msgs     0.001596                       # Average number of messages in buffer (Unspecified)
system.caches.controllers6.forwardFromDir.m_stall_time  5053.343989                       # Average number of cycles messages are stalled in this MB (Unspecified)
system.caches.controllers6.forwardFromDir.m_stall_count        13456                       # Number of times messages were stalled (Unspecified)
system.caches.controllers6.forwardToL0.m_buf_msgs     0.000974                       # Average number of messages in buffer (Unspecified)
system.caches.controllers6.forwardToL0.m_stall_time   992.752664                       # Average number of cycles messages are stalled in this MB (Unspecified)
system.caches.controllers6.power_state.pwrStateResidencyTicks::UNDEFINED 713695487000                       # Cumulative time (in ticks) in various power states (Tick)
system.caches.controllers6.requestFromL0.m_buf_msgs     0.244006                       # Average number of messages in buffer (Unspecified)
system.caches.controllers6.requestFromL0.m_stall_time 131638.247554                       # Average number of cycles messages are stalled in this MB (Unspecified)
system.caches.controllers6.requestFromL0.m_stall_count      1003766                       # Number of times messages were stalled (Unspecified)
system.caches.controllers6.requestToDir.m_buf_msgs     0.003028                       # Average number of messages in buffer (Unspecified)
system.caches.controllers6.requestToDir.m_stall_time   992.764319                       # Average number of cycles messages are stalled in this MB (Unspecified)
system.caches.controllers6.responseFromDirOrSibling.m_buf_msgs     0.001656                       # Average number of messages in buffer (Unspecified)
system.caches.controllers6.responseFromDirOrSibling.m_stall_time 12831.353940                       # Average number of cycles messages are stalled in this MB (Unspecified)
system.caches.controllers6.responseFromL0.m_buf_msgs     0.000044                       # Average number of messages in buffer (Unspecified)
system.caches.controllers6.responseFromL0.m_stall_time  4963.822190                       # Average number of cycles messages are stalled in this MB (Unspecified)
system.caches.controllers6.responseToDirOrSibling.m_buf_msgs     0.000033                       # Average number of messages in buffer (Unspecified)
system.caches.controllers6.responseToDirOrSibling.m_stall_time   992.751568                       # Average number of cycles messages are stalled in this MB (Unspecified)
system.caches.controllers6.responseToL0.m_buf_msgs     0.002303                       # Average number of messages in buffer (Unspecified)
system.caches.controllers6.responseToL0.m_stall_time   992.764294                       # Average number of cycles messages are stalled in this MB (Unspecified)
system.caches.controllers6.xyzStatsObject.power_state.pwrStateResidencyTicks::UNDEFINED 713695487000                       # Cumulative time (in ticks) in various power states (Tick)
system.caches.controllers7.cacheMemory.m_demand_hits            0                       # Number of cache demand hits (Unspecified)
system.caches.controllers7.cacheMemory.m_demand_misses            0                       # Number of cache demand misses (Unspecified)
system.caches.controllers7.cacheMemory.m_demand_accesses            0                       # Number of cache demand accesses (Unspecified)
system.caches.controllers7.forwardFromDir.m_buf_msgs     0.001595                       # Average number of messages in buffer (Unspecified)
system.caches.controllers7.forwardFromDir.m_stall_time  5065.614177                       # Average number of cycles messages are stalled in this MB (Unspecified)
system.caches.controllers7.forwardFromDir.m_stall_count        13387                       # Number of times messages were stalled (Unspecified)
system.caches.controllers7.forwardToL0.m_buf_msgs     0.000971                       # Average number of messages in buffer (Unspecified)
system.caches.controllers7.forwardToL0.m_stall_time   992.706898                       # Average number of cycles messages are stalled in this MB (Unspecified)
system.caches.controllers7.power_state.pwrStateResidencyTicks::UNDEFINED 713695487000                       # Cumulative time (in ticks) in various power states (Tick)
system.caches.controllers7.requestFromL0.m_buf_msgs     0.244057                       # Average number of messages in buffer (Unspecified)
system.caches.controllers7.requestFromL0.m_stall_time 131900.146956                       # Average number of cycles messages are stalled in this MB (Unspecified)
system.caches.controllers7.requestFromL0.m_stall_count      1002534                       # Number of times messages were stalled (Unspecified)
system.caches.controllers7.requestToDir.m_buf_msgs     0.003027                       # Average number of messages in buffer (Unspecified)
system.caches.controllers7.requestToDir.m_stall_time   992.713937                       # Average number of cycles messages are stalled in this MB (Unspecified)
system.caches.controllers7.responseFromDirOrSibling.m_buf_msgs     0.001655                       # Average number of messages in buffer (Unspecified)
system.caches.controllers7.responseFromDirOrSibling.m_stall_time 12827.579927                       # Average number of cycles messages are stalled in this MB (Unspecified)
system.caches.controllers7.responseFromL0.m_buf_msgs     0.000042                       # Average number of messages in buffer (Unspecified)
system.caches.controllers7.responseFromL0.m_stall_time  4963.571273                       # Average number of cycles messages are stalled in this MB (Unspecified)
system.caches.controllers7.responseToDirOrSibling.m_buf_msgs     0.000032                       # Average number of messages in buffer (Unspecified)
system.caches.controllers7.responseToDirOrSibling.m_stall_time   992.705595                       # Average number of cycles messages are stalled in this MB (Unspecified)
system.caches.controllers7.responseToL0.m_buf_msgs     0.002218                       # Average number of messages in buffer (Unspecified)
system.caches.controllers7.responseToL0.m_stall_time   992.713912                       # Average number of cycles messages are stalled in this MB (Unspecified)
system.caches.controllers7.xyzStatsObject.power_state.pwrStateResidencyTicks::UNDEFINED 713695487000                       # Cumulative time (in ticks) in various power states (Tick)
system.caches.controllers8.cacheMemory.m_demand_hits            0                       # Number of cache demand hits (Unspecified)
system.caches.controllers8.cacheMemory.m_demand_misses            0                       # Number of cache demand misses (Unspecified)
system.caches.controllers8.cacheMemory.m_demand_accesses            0                       # Number of cache demand accesses (Unspecified)
system.caches.controllers8.forwardToCache.m_buf_msgs     0.006601                       # Average number of messages in buffer (Unspecified)
system.caches.controllers8.forwardToCache.m_stall_time   999.994121                       # Average number of cycles messages are stalled in this MB (Unspecified)
system.caches.controllers8.power_state.pwrStateResidencyTicks::UNDEFINED 713695487000                       # Cumulative time (in ticks) in various power states (Tick)
system.caches.controllers8.requestFromCache.m_not_avail_count      2619078                       # Number of times this buffer did not have N slots available (Unspecified)
system.caches.controllers8.requestFromCache.m_buf_msgs     0.012130                       # Average number of messages in buffer (Unspecified)
system.caches.controllers8.requestFromCache.m_stall_time 261648.161255                       # Average number of cycles messages are stalled in this MB (Unspecified)
system.caches.controllers8.requestFromCache.m_occupancy     0.012130                       # Average occupancy of buffer capacity (Unspecified)
system.caches.controllers8.requestToMemory.m_buf_msgs     0.007174                       # Average number of messages in buffer (Unspecified)
system.caches.controllers8.requestToMemory.m_stall_time   999.999983                       # Average number of cycles messages are stalled in this MB (Unspecified)
system.caches.controllers8.responseFromMemory.m_buf_msgs     0.007174                       # Average number of messages in buffer (Unspecified)
system.caches.controllers8.responseFromMemory.m_stall_time   999.999842                       # Average number of cycles messages are stalled in this MB (Unspecified)
system.caches.controllers8.responseToCache.m_buf_msgs     0.058651                       # Average number of messages in buffer (Unspecified)
system.caches.controllers8.responseToCache.m_stall_time  8999.998462                       # Average number of cycles messages are stalled in this MB (Unspecified)
system.caches.controllers8.xyzCacheMemory.m_demand_hits            0                       # Number of cache demand hits (Unspecified)
system.caches.controllers8.xyzCacheMemory.m_demand_misses            0                       # Number of cache demand misses (Unspecified)
system.caches.controllers8.xyzCacheMemory.m_demand_accesses            0                       # Number of cache demand accesses (Unspecified)
system.caches.controllers8.xyzStatsObject.power_state.pwrStateResidencyTicks::UNDEFINED 713695487000                       # Cumulative time (in ticks) in various power states (Tick)
system.caches.network.msg_count.Control      41048654                       (Unspecified)
system.caches.network.msg_byte.Control      328389232                       (Unspecified)
system.caches.network.msg_count.Data         23593326                       (Unspecified)
system.caches.network.msg_byte.Data        1698719472                       (Unspecified)
system.caches.network.msg_count.Response_Data      4254908                       (Unspecified)
[...]
system.caches.controllers2.xyzStatsObjectlatency::underflows            0      0.00%      0.00% # Mem access latency (Unspecified)
system.caches.controllers2.xyzStatsObjectlatency::0-49999      1643632    100.00%    100.00% # Mem access latency (Unspecified)
system.caches.controllers2.xyzStatsObjectlatency::50000-99999            0      0.00%    100.00% # Mem access latency (Unspecified)
system.caches.controllers2.xyzStatsObjectlatency::100000            0      0.00%    100.00% # Mem access latency (Unspecified)
system.caches.controllers2.xyzStatsObjectlatency::overflows            0      0.00%    100.00% # Mem access latency (Unspecified)
system.caches.controllers2.xyzStatsObjectlatency::min_value           10                       # Mem access latency (Unspecified)
system.caches.controllers2.xyzStatsObjectlatency::max_value         1129                       # Mem access latency (Unspecified)
system.caches.controllers2.xyzStatsObjectlatency::total      1643632                       # Mem access latency (Unspecified)
system.caches.controllers3.xyzStatsObject.total_put            0                       # Total number of put (PutM + PutS) (Unspecified)
system.caches.controllers3.xyzStatsObject.total_put_as_wt            0                       # Total number of put as write through (Unspecified)
system.caches.controllers3.xyzStatsObject.total_putm            0                       # Total number of PutM (Unspecified)
system.caches.controllers3.xyzStatsObject.total_putm_as_wt            0                       # Total number of PutM as write through (Unspecified)
system.caches.controllers3.xyzStatsObject.total_puts            0                       # Total number of PutS (Unspecified)
system.caches.controllers3.xyzStatsObject.total_puts_as_wt            0                       # Total number of PutS as write through (Unspecified)
system.caches.controllers3.xyzStatsObject.total_repl            0                       # Total Replacement (Unspecified)
system.caches.controllers3.xyzStatsObject.total_repl_llc            0                       # Total Replacement of LLC line (Unspecified)
system.caches.controllers3.xyzStatsObject.total_repl_owned            0                       # Total Replacement of owned line (Unspecified)
system.caches.controllers3.xyzStatsObject.total_repl_shared            0                       # Total Replacement of shared line (Unspecified)
system.caches.controllers3.xyzStatsObject.wt_putRatio          nan                       # WT / Put (Unspecified)
system.caches.controllers3.xyzStatsObject.wt_putmRatio          nan                       # PutM WT / PutM (Unspecified)
system.caches.controllers3.xyzStatsObject.wt_putsRatio          nan                       # PutS WT / PutS (Unspecified)
system.caches.controllers3.xyzStatsObjectlatency::samples      1582818                       # Mem access latency (Unspecified)
system.caches.controllers3.xyzStatsObjectlatency::mean   385.132247                       # Mem access latency (Unspecified)
system.caches.controllers3.xyzStatsObjectlatency::stdev   342.839145                       # Mem access latency (Unspecified)
system.caches.controllers3.xyzStatsObjectlatency::underflows            0      0.00%      0.00% # Mem access latency (Unspecified)
system.caches.controllers3.xyzStatsObjectlatency::0-49999      1582818    100.00%    100.00% # Mem access latency (Unspecified)
system.caches.controllers3.xyzStatsObjectlatency::50000-99999            0      0.00%    100.00% # Mem access latency (Unspecified)
system.caches.controllers3.xyzStatsObjectlatency::100000            0      0.00%    100.00% # Mem access latency (Unspecified)
system.caches.controllers3.xyzStatsObjectlatency::overflows            0      0.00%    100.00% # Mem access latency (Unspecified)
system.caches.controllers3.xyzStatsObjectlatency::min_value           10                       # Mem access latency (Unspecified)
system.caches.controllers3.xyzStatsObjectlatency::max_value         1125                       # Mem access latency (Unspecified)
system.caches.controllers3.xyzStatsObjectlatency::total      1582818                       # Mem access latency (Unspecified)
system.caches.controllers4.xyzStatsObject.total_put            0                       # Total number of put (PutM + PutS) (Unspecified)
system.caches.controllers4.xyzStatsObject.total_put_as_wt            0                       # Total number of put as write through (Unspecified)
system.caches.controllers4.xyzStatsObject.total_putm            0                       # Total number of PutM (Unspecified)
system.caches.controllers4.xyzStatsObject.total_putm_as_wt            0                       # Total number of PutM as write through (Unspecified)
system.caches.controllers4.xyzStatsObject.total_puts            0                       # Total number of PutS (Unspecified)
system.caches.controllers4.xyzStatsObject.total_puts_as_wt            0                       # Total number of PutS as write through (Unspecified)
system.caches.controllers4.xyzStatsObject.total_repl            0                       # Total Replacement (Unspecified)
system.caches.controllers4.xyzStatsObject.total_repl_llc            0                       # Total Replacement of LLC line (Unspecified)
system.caches.controllers4.xyzStatsObject.total_repl_owned            0                       # Total Replacement of owned line (Unspecified)
system.caches.controllers4.xyzStatsObject.total_repl_shared            0                       # Total Replacement of shared line (Unspecified)
system.caches.controllers4.xyzStatsObject.wt_putRatio          nan                       # WT / Put (Unspecified)
system.caches.controllers4.xyzStatsObject.wt_putmRatio          nan                       # PutM WT / PutM (Unspecified)
system.caches.controllers4.xyzStatsObject.wt_putsRatio          nan                       # PutS WT / PutS (Unspecified)
system.caches.controllers4.xyzStatsObjectlatency::samples      1192316                       # Mem access latency (Unspecified)
system.caches.controllers4.xyzStatsObjectlatency::mean   355.078953                       # Mem access latency (Unspecified)
system.caches.controllers4.xyzStatsObjectlatency::stdev   210.780422                       # Mem access latency (Unspecified)
system.caches.controllers4.xyzStatsObjectlatency::underflows            0      0.00%      0.00% # Mem access latency (Unspecified)
system.caches.controllers4.xyzStatsObjectlatency::0-49999      1192316    100.00%    100.00% # Mem access latency (Unspecified)
system.caches.controllers4.xyzStatsObjectlatency::50000-99999            0      0.00%    100.00% # Mem access latency (Unspecified)
system.caches.controllers4.xyzStatsObjectlatency::100000            0      0.00%    100.00% # Mem access latency (Unspecified)
system.caches.controllers4.xyzStatsObjectlatency::overflows            0      0.00%    100.00% # Mem access latency (Unspecified)
system.caches.controllers4.xyzStatsObjectlatency::min_value           15                       # Mem access latency (Unspecified)
system.caches.controllers4.xyzStatsObjectlatency::max_value          732                       # Mem access latency (Unspecified)
system.caches.controllers4.xyzStatsObjectlatency::total      1192316                       # Mem access latency (Unspecified)
system.caches.controllers5.xyzStatsObject.total_put            0                       # Total number of put (PutM + PutS) (Unspecified)
system.caches.controllers5.xyzStatsObject.total_put_as_wt            0                       # Total number of put as write through (Unspecified)
system.caches.controllers5.xyzStatsObject.total_putm            0                       # Total number of PutM (Unspecified)
system.caches.controllers5.xyzStatsObject.total_putm_as_wt            0                       # Total number of PutM as write through (Unspecified)
system.caches.controllers5.xyzStatsObject.total_puts            0                       # Total number of PutS (Unspecified)
system.caches.controllers5.xyzStatsObject.total_puts_as_wt            0                       # Total number of PutS as write through (Unspecified)
system.caches.controllers5.xyzStatsObject.total_repl            0                       # Total Replacement (Unspecified)
system.caches.controllers5.xyzStatsObject.total_repl_llc            0                       # Total Replacement of LLC line (Unspecified)
system.caches.controllers5.xyzStatsObject.total_repl_owned            0                       # Total Replacement of owned line (Unspecified)
system.caches.controllers5.xyzStatsObject.total_repl_shared            0                       # Total Replacement of shared line (Unspecified)
system.caches.controllers5.xyzStatsObject.wt_putRatio          nan                       # WT / Put (Unspecified)
system.caches.controllers5.xyzStatsObject.wt_putmRatio          nan                       # PutM WT / PutM (Unspecified)
system.caches.controllers5.xyzStatsObject.wt_putsRatio          nan                       # PutS WT / PutS (Unspecified)
system.caches.controllers5.xyzStatsObjectlatency::samples      1166716                       # Mem access latency (Unspecified)
system.caches.controllers5.xyzStatsObjectlatency::mean   357.955971                       # Mem access latency (Unspecified)
system.caches.controllers5.xyzStatsObjectlatency::stdev   210.324646                       # Mem access latency (Unspecified)
system.caches.controllers5.xyzStatsObjectlatency::underflows            0      0.00%      0.00% # Mem access latency (Unspecified)
system.caches.controllers5.xyzStatsObjectlatency::0-49999      1166716    100.00%    100.00% # Mem access latency (Unspecified)
system.caches.controllers5.xyzStatsObjectlatency::50000-99999            0      0.00%    100.00% # Mem access latency (Unspecified)
system.caches.controllers5.xyzStatsObjectlatency::100000            0      0.00%    100.00% # Mem access latency (Unspecified)
system.caches.controllers5.xyzStatsObjectlatency::overflows            0      0.00%    100.00% # Mem access latency (Unspecified)
system.caches.controllers5.xyzStatsObjectlatency::min_value           15                       # Mem access latency (Unspecified)
system.caches.controllers5.xyzStatsObjectlatency::max_value          732                       # Mem access latency (Unspecified)
system.caches.controllers5.xyzStatsObjectlatency::total      1166716                       # Mem access latency (Unspecified)
system.caches.controllers6.xyzStatsObject.total_put            0                       # Total number of put (PutM + PutS) (Unspecified)
system.caches.controllers6.xyzStatsObject.total_put_as_wt            0                       # Total number of put as write through (Unspecified)
system.caches.controllers6.xyzStatsObject.total_putm            0                       # Total number of PutM (Unspecified)
system.caches.controllers6.xyzStatsObject.total_putm_as_wt            0                       # Total number of PutM as write through (Unspecified)
system.caches.controllers6.xyzStatsObject.total_puts            0                       # Total number of PutS (Unspecified)
system.caches.controllers6.xyzStatsObject.total_puts_as_wt            0                       # Total number of PutS as write through (Unspecified)
system.caches.controllers6.xyzStatsObject.total_repl            0                       # Total Replacement (Unspecified)
system.caches.controllers6.xyzStatsObject.total_repl_llc            0                       # Total Replacement of LLC line (Unspecified)
system.caches.controllers6.xyzStatsObject.total_repl_owned            0                       # Total Replacement of owned line (Unspecified)
system.caches.controllers6.xyzStatsObject.total_repl_shared            0                       # Total Replacement of shared line (Unspecified)
system.caches.controllers6.xyzStatsObject.wt_putRatio          nan                       # WT / Put (Unspecified)
system.caches.controllers6.xyzStatsObject.wt_putmRatio          nan                       # PutM WT / PutM (Unspecified)
system.caches.controllers6.xyzStatsObject.wt_putsRatio          nan                       # PutS WT / PutS (Unspecified)
system.caches.controllers6.xyzStatsObjectlatency::samples      1178564                       # Mem access latency (Unspecified)
system.caches.controllers6.xyzStatsObjectlatency::mean   356.178152                       # Mem access latency (Unspecified)
system.caches.controllers6.xyzStatsObjectlatency::stdev   210.817821                       # Mem access latency (Unspecified)
system.caches.controllers6.xyzStatsObjectlatency::underflows            0      0.00%      0.00% # Mem access latency (Unspecified)
system.caches.controllers6.xyzStatsObjectlatency::0-49999      1178564    100.00%    100.00% # Mem access latency (Unspecified)
system.caches.controllers6.xyzStatsObjectlatency::50000-99999            0      0.00%    100.00% # Mem access latency (Unspecified)
system.caches.controllers6.xyzStatsObjectlatency::100000            0      0.00%    100.00% # Mem access latency (Unspecified)
system.caches.controllers6.xyzStatsObjectlatency::overflows            0      0.00%    100.00% # Mem access latency (Unspecified)
system.caches.controllers6.xyzStatsObjectlatency::min_value           15                       # Mem access latency (Unspecified)
system.caches.controllers6.xyzStatsObjectlatency::max_value          732                       # Mem access latency (Unspecified)
system.caches.controllers6.xyzStatsObjectlatency::total      1178564                       # Mem access latency (Unspecified)
system.caches.controllers7.xyzStatsObject.total_put            0                       # Total number of put (PutM + PutS) (Unspecified)
system.caches.controllers7.xyzStatsObject.total_put_as_wt            0                       # Total number of put as write through (Unspecified)
system.caches.controllers7.xyzStatsObject.total_putm            0                       # Total number of PutM (Unspecified)
system.caches.controllers7.xyzStatsObject.total_putm_as_wt            0                       # Total number of PutM as write through (Unspecified)
system.caches.controllers7.xyzStatsObject.total_puts            0                       # Total number of PutS (Unspecified)
system.caches.controllers7.xyzStatsObject.total_puts_as_wt            0                       # Total number of PutS as write through (Unspecified)
system.caches.controllers7.xyzStatsObject.total_repl            0                       # Total Replacement (Unspecified)
system.caches.controllers7.xyzStatsObject.total_repl_llc            0                       # Total Replacement of LLC line (Unspecified)
system.caches.controllers7.xyzStatsObject.total_repl_owned            0                       # Total Replacement of owned line (Unspecified)
system.caches.controllers7.xyzStatsObject.total_repl_shared            0                       # Total Replacement of shared line (Unspecified)
system.caches.controllers7.xyzStatsObject.wt_putRatio          nan                       # WT / Put (Unspecified)
system.caches.controllers7.xyzStatsObject.wt_putmRatio          nan                       # PutM WT / PutM (Unspecified)
system.caches.controllers7.xyzStatsObject.wt_putsRatio          nan                       # PutS WT / PutS (Unspecified)
system.caches.controllers7.xyzStatsObjectlatency::samples      1177922                       # Mem access latency (Unspecified)
system.caches.controllers7.xyzStatsObjectlatency::mean   356.673815                       # Mem access latency (Unspecified)
system.caches.controllers7.xyzStatsObjectlatency::stdev   210.781107                       # Mem access latency (Unspecified)
system.caches.controllers7.xyzStatsObjectlatency::underflows            0      0.00%      0.00% # Mem access latency (Unspecified)
system.caches.controllers7.xyzStatsObjectlatency::0-49999      1177922    100.00%    100.00% # Mem access latency (Unspecified)
system.caches.controllers7.xyzStatsObjectlatency::50000-99999            0      0.00%    100.00% # Mem access latency (Unspecified)
system.caches.controllers7.xyzStatsObjectlatency::100000            0      0.00%    100.00% # Mem access latency (Unspecified)
system.caches.controllers7.xyzStatsObjectlatency::overflows            0      0.00%    100.00% # Mem access latency (Unspecified)
system.caches.controllers7.xyzStatsObjectlatency::min_value           15                       # Mem access latency (Unspecified)
system.caches.controllers7.xyzStatsObjectlatency::max_value          732                       # Mem access latency (Unspecified)
system.caches.controllers7.xyzStatsObjectlatency::total      1177922                       # Mem access latency (Unspecified)
system.caches.controllers8.xyzStatsObject.total_put      4154780                       # Total number of put (PutM + PutS) (Unspecified)
system.caches.controllers8.xyzStatsObject.total_put_as_wt      2596836                       # Total number of put as write through (Unspecified)
system.caches.controllers8.xyzStatsObject.total_putm      1309539                       # Total number of PutM (Unspecified)
system.caches.controllers8.xyzStatsObject.total_putm_as_wt       946881                       # Total number of PutM as write through (Unspecified)
system.caches.controllers8.xyzStatsObject.total_puts      2845241                       # Total number of PutS (Unspecified)
system.caches.controllers8.xyzStatsObject.total_puts_as_wt      1649955                       # Total number of PutS as write through (Unspecified)
system.caches.controllers8.xyzStatsObject.total_repl            0                       # Total Replacement (Unspecified)
system.caches.controllers8.xyzStatsObject.total_repl_llc            0                       # Total Replacement of LLC line (Unspecified)
system.caches.controllers8.xyzStatsObject.total_repl_owned            0                       # Total Replacement of owned line (Unspecified)
system.caches.controllers8.xyzStatsObject.total_repl_shared            0                       # Total Replacement of shared line (Unspecified)
system.caches.controllers8.xyzStatsObject.wt_putRatio     0.625024                       # WT / Put (Unspecified)
system.caches.controllers8.xyzStatsObject.wt_putmRatio     0.723064                       # PutM WT / PutM (Unspecified)
system.caches.controllers8.xyzStatsObject.wt_putsRatio     0.579900                       # PutS WT / PutS (Unspecified)
system.caches.controllers8.xyzStatsObjectlatency::samples            0                       # Mem access latency (Unspecified)
system.caches.controllers8.xyzStatsObjectlatency::mean          nan                       # Mem access latency (Unspecified)
system.caches.controllers8.xyzStatsObjectlatency::stdev          nan                       # Mem access latency (Unspecified)
system.caches.controllers8.xyzStatsObjectlatency::underflows            0                       # Mem access latency (Unspecified)
system.caches.controllers8.xyzStatsObjectlatency::0-49999            0                       # Mem access latency (Unspecified)
system.caches.controllers8.xyzStatsObjectlatency::50000-99999            0                       # Mem access latency (Unspecified)
system.caches.controllers8.xyzStatsObjectlatency::100000            0                       # Mem access latency (Unspecified)
system.caches.controllers8.xyzStatsObjectlatency::overflows            0                       # Mem access latency (Unspecified)
system.caches.controllers8.xyzStatsObjectlatency::min_value            0                       # Mem access latency (Unspecified)
system.caches.controllers8.xyzStatsObjectlatency::max_value            0                       # Mem access latency (Unspecified)
system.caches.controllers8.xyzStatsObjectlatency::total            0                       # Mem access latency (Unspecified)

---------- End Simulation Statistics   ----------
