
---------- Begin Simulation Statistics ----------
simSeconds                                   0.105063                       # Number of seconds simulated (Second)
simTicks                                 105062911000                       # Number of ticks simulated (Tick)
finalTick                                105062911000                       # Number of ticks from beginning of simulation (restored from checkpoints and never reset) (Tick)
simFreq                                  1000000000000                       # The number of ticks per simulated second ((Tick/Second))
hostSeconds                                     68.04                       # Real time elapsed on the host (Second)
hostTickRate                               1543997831                       # The number of ticks simulated per host second (ticks/s) ((Tick/Second))
hostMemory                                    4935408                       # Number of bytes of host memory used (Byte)
simInsts                                     59409491                       # Number of instructions simulated (Count)
simOps                                      116671690                       # Number of ops (including micro ops) simulated (Count)
hostInstRate                                   873067                       # Simulator instruction rate (inst/s) ((Count/Second))
hostOpRate                                    1714573                       # Simulator op (including micro ops) rate (op/s) ((Count/Second))
system.caches.m_outstandReqHistSeqr::bucket_size            1                       (Unspecified)
system.caches.m_outstandReqHistSeqr::max_bucket            9                       (Unspecified)
system.caches.m_outstandReqHistSeqr::samples     90487768                       (Unspecified)
system.caches.m_outstandReqHistSeqr::mean            1                       (Unspecified)
system.caches.m_outstandReqHistSeqr::gmean            1                       (Unspecified)
system.caches.m_outstandReqHistSeqr      |           0      0.00%      0.00% |    90487768    100.00%    100.00% |           0      0.00%    100.00% |           0      0.00%    100.00% |           0      0.00%    100.00% |           0      0.00%    100.00% |           0      0.00%    100.00% |           0      0.00%    100.00% |           0      0.00%    100.00% |           0      0.00%    100.00% (Unspecified)
system.caches.m_outstandReqHistSeqr::total     90487768                       (Unspecified)
system.caches.m_latencyHistSeqr::bucket_size          128                       (Unspecified)
system.caches.m_latencyHistSeqr::max_bucket         1279                       (Unspecified)
system.caches.m_latencyHistSeqr::samples     90487768                       (Unspecified)
system.caches.m_latencyHistSeqr::mean        1.804596                       (Unspecified)
system.caches.m_latencyHistSeqr::gmean       1.041427                       (Unspecified)
system.caches.m_latencyHistSeqr::stdev      14.901636                       (Unspecified)
system.caches.m_latencyHistSeqr          |    90294193     99.79%     99.79% |       87774      0.10%     99.88% |       70718      0.08%     99.96% |       21425      0.02%     99.98% |        9492      0.01%    100.00% |        3248      0.00%    100.00% |         763      0.00%    100.00% |         139      0.00%    100.00% |          16      0.00%    100.00% |           0      0.00%    100.00% (Unspecified)
system.caches.m_latencyHistSeqr::total       90487768                       (Unspecified)
system.caches.m_hitLatencyHistSeqr::bucket_size            1                       (Unspecified)
system.caches.m_hitLatencyHistSeqr::max_bucket            9                       (Unspecified)
system.caches.m_hitLatencyHistSeqr::samples     89369293                       (Unspecified)
system.caches.m_hitLatencyHistSeqr::mean            1                       (Unspecified)
system.caches.m_hitLatencyHistSeqr::gmean            1                       (Unspecified)
system.caches.m_hitLatencyHistSeqr       |           0      0.00%      0.00% |    89369293    100.00%    100.00% |           0      0.00%    100.00% |           0      0.00%    100.00% |           0      0.00%    100.00% |           0      0.00%    100.00% |           0      0.00%    100.00% |           0      0.00%    100.00% |           0      0.00%    100.00% |           0      0.00%    100.00% (Unspecified)
system.caches.m_hitLatencyHistSeqr::total     89369293                       (Unspecified)
system.caches.m_missLatencyHistSeqr::bucket_size          128                       (Unspecified)
system.caches.m_missLatencyHistSeqr::max_bucket         1279                       (Unspecified)
system.caches.m_missLatencyHistSeqr::samples      1118475                       (Unspecified)
system.caches.m_missLatencyHistSeqr::mean    66.094082                       (Unspecified)
system.caches.m_missLatencyHistSeqr::gmean    26.681898                       (Unspecified)
system.caches.m_missLatencyHistSeqr::stdev   117.389624                       (Unspecified)
system.caches.m_missLatencyHistSeqr      |      924900     82.69%     82.69% |       87774      7.85%     90.54% |       70718      6.32%     96.86% |       21425      1.92%     98.78% |        9492      0.85%     99.63% |        3248      0.29%     99.92% |         763      0.07%     99.99% |         139      0.01%    100.00% |          16      0.00%    100.00% |           0      0.00%    100.00% (Unspecified)
system.caches.m_missLatencyHistSeqr::total      1118475                       (Unspecified)
system.caches.L0Cache_Controller.Load    |     5137289     37.46%     37.46% |     2803689     20.44%     57.90% |     2464395     17.97%     75.87% |     3310239     24.13%    100.00% (Unspecified)
system.caches.L0Cache_Controller.Load::total     13715612                       (Unspecified)
system.caches.L0Cache_Controller.Ifetch  |    27917545     39.66%     39.66% |    13887829     19.73%     59.39% |    12209833     17.34%     76.73% |    16378950     23.27%    100.00% (Unspecified)
system.caches.L0Cache_Controller.Ifetch::total     70394157                       (Unspecified)
system.caches.L0Cache_Controller.Store   |     2219203     34.79%     34.79% |     1359552     21.32%     56.11% |     1195277     18.74%     74.85% |     1603967     25.15%    100.00% (Unspecified)
system.caches.L0Cache_Controller.Store::total      6377999                       (Unspecified)
system.caches.L0Cache_Controller.Replacement |      322080     33.99%     33.99% |      203527     21.48%     55.46% |      179117     18.90%     74.37% |      242931     25.63%    100.00% (Unspecified)
system.caches.L0Cache_Controller.Replacement::total       947655                       (Unspecified)
system.caches.L0Cache_Controller.Inv     |       82403     38.24%     38.24% |       44545     20.67%     58.92% |       38805     18.01%     76.93% |       49710     23.07%    100.00% (Unspecified)
system.caches.L0Cache_Controller.Inv::total       215463                       (Unspecified)
system.caches.L0Cache_Controller.Data    |      260064     37.43%     37.43% |      141789     20.41%     57.83% |      124977     17.99%     75.82% |      168038     24.18%    100.00% (Unspecified)
system.caches.L0Cache_Controller.Data::total       694868                       (Unspecified)
system.caches.L0Cache_Controller.ExData  |      114225     26.96%     26.96% |      101650     24.00%     50.96% |       88769     20.96%     71.92% |      118963     28.08%    100.00% (Unspecified)
system.caches.L0Cache_Controller.ExData::total       423607                       (Unspecified)
system.caches.L0Cache_Controller.I.Load  |      301267     31.38%     31.38% |      215508     22.45%     53.82% |      188827     19.67%     73.49% |      254531     26.51%    100.00% (Unspecified)
system.caches.L0Cache_Controller.I.Load::total       960133                       (Unspecified)
system.caches.L0Cache_Controller.I.Ifetch |       19321     48.12%     48.12% |        6821     16.99%     65.10% |        6294     15.67%     80.78% |        7719     19.22%    100.00% (Unspecified)
system.caches.L0Cache_Controller.I.Ifetch::total        40155                       (Unspecified)
system.caches.L0Cache_Controller.I.Store |       30192     96.82%     96.82% |         336      1.08%     97.89% |         360      1.15%     99.05% |         297      0.95%    100.00% (Unspecified)
system.caches.L0Cache_Controller.I.Store::total        31185                       (Unspecified)
system.caches.L0Cache_Controller.I.Inv   |       53763     40.77%     40.77% |       25465     19.31%     60.08% |       22498     17.06%     77.14% |       30153     22.86%    100.00% (Unspecified)
system.caches.L0Cache_Controller.I.Inv::total       131879                       (Unspecified)
system.caches.L0Cache_Controller.IS_D.Data |      206363     35.78%     35.78% |      120679     20.93%     56.71% |      106352     18.44%     75.15% |      143287     24.85%    100.00% (Unspecified)
system.caches.L0Cache_Controller.IS_D.Data::total       576681                       (Unspecified)
system.caches.L0Cache_Controller.IS_D.ExData |      114225     26.96%     26.96% |      101650     24.00%     50.96% |       88769     20.96%     71.92% |      118963     28.08%    100.00% (Unspecified)
system.caches.L0Cache_Controller.IS_D.ExData::total       423607                       (Unspecified)
system.caches.L0Cache_Controller.IM_D.Inv |           0      0.00%      0.00% |           0      0.00%      0.00% |           1    100.00%    100.00% |           0      0.00%    100.00% (Unspecified)
system.caches.L0Cache_Controller.IM_D.Inv::total            1                       (Unspecified)
system.caches.L0Cache_Controller.IM_D.Data |       53701     45.44%     45.44% |       21110     17.86%     63.30% |       18625     15.76%     79.06% |       24751     20.94%    100.00% (Unspecified)
system.caches.L0Cache_Controller.IM_D.Data::total       118187                       (Unspecified)
system.caches.L0Cache_Controller.S.Load  |     2348791     37.68%     37.68% |     1269902     20.37%     58.05% |     1115075     17.89%     75.94% |     1499936     24.06%    100.00% (Unspecified)
system.caches.L0Cache_Controller.S.Load::total      6233704                       (Unspecified)
system.caches.L0Cache_Controller.S.Ifetch |    27898224     39.65%     39.65% |    13881008     19.73%     59.38% |    12203539     17.35%     76.73% |    16371231     23.27%    100.00% (Unspecified)
system.caches.L0Cache_Controller.S.Ifetch::total     70354002                       (Unspecified)
system.caches.L0Cache_Controller.S.Store |       23509     27.02%     27.02% |       20774     23.88%     50.90% |       18265     20.99%     71.89% |       24454     28.11%    100.00% (Unspecified)
system.caches.L0Cache_Controller.S.Store::total        87002                       (Unspecified)
system.caches.L0Cache_Controller.S.Replacement |      162995     37.55%     37.55% |       88224     20.33%     57.88% |       77768     17.92%     75.79% |      105075     24.21%    100.00% (Unspecified)
system.caches.L0Cache_Controller.S.Replacement::total       434062                       (Unspecified)
system.caches.L0Cache_Controller.S.Inv   |       19812     35.73%     35.73% |       11639     20.99%     56.73% |       10277     18.54%     75.26% |       13715     24.74%    100.00% (Unspecified)
system.caches.L0Cache_Controller.S.Inv::total        55443                       (Unspecified)
system.caches.L0Cache_Controller.M.Load  |     2487231     38.14%     38.14% |     1318279     20.21%     58.35% |     1160493     17.79%     76.14% |     1555772     23.86%    100.00% (Unspecified)
system.caches.L0Cache_Controller.M.Load::total      6521775                       (Unspecified)
system.caches.L0Cache_Controller.M.Store |     2165502     34.59%     34.59% |     1338442     21.38%     55.98% |     1176652     18.80%     74.77% |     1579216     25.23%    100.00% (Unspecified)
system.caches.L0Cache_Controller.M.Store::total      6259812                       (Unspecified)
system.caches.L0Cache_Controller.M.Replacement |      159085     30.97%     30.97% |      115303     22.45%     53.43% |      101349     19.73%     73.16% |      137856     26.84%    100.00% (Unspecified)
system.caches.L0Cache_Controller.M.Replacement::total       513593                       (Unspecified)
system.caches.L0Cache_Controller.M.Inv   |        8828     31.37%     31.37% |        7441     26.44%     57.81% |        6029     21.43%     79.24% |        5842     20.76%    100.00% (Unspecified)
system.caches.L0Cache_Controller.M.Inv::total        28140                       (Unspecified)
system.caches.L1Cache_Controller.Load    |      320588     32.05%     32.05% |      222329     22.23%     54.28% |      195121     19.51%     73.78% |      262250     26.22%    100.00% (Unspecified)
system.caches.L1Cache_Controller.Load::total      1000288                       (Unspecified)
system.caches.L1Cache_Controller.Store   |       53701     45.44%     45.44% |       21110     17.86%     63.30% |       18625     15.76%     79.06% |       24751     20.94%    100.00% (Unspecified)
system.caches.L1Cache_Controller.Store::total       118187                       (Unspecified)
system.caches.L1Cache_Controller.PutM    |      159085     30.97%     30.97% |      115303     22.45%     53.43% |      101349     19.73%     73.16% |      137856     26.84%    100.00% (Unspecified)
system.caches.L1Cache_Controller.PutM::total       513593                       (Unspecified)
system.caches.L1Cache_Controller.Replacement |      227929     38.45%     38.45% |      119228     20.11%     58.57% |      104891     17.70%     76.26% |      140714     23.74%    100.00% (Unspecified)
system.caches.L1Cache_Controller.Replacement::total       592762                       (Unspecified)
system.caches.L1Cache_Controller.FwdGetM |        9474     22.54%     22.54% |       12656     30.12%     52.66% |       10340     24.60%     77.26% |        9555     22.74%    100.00% (Unspecified)
system.caches.L1Cache_Controller.FwdGetM::total        42025                       (Unspecified)
system.caches.L1Cache_Controller.Inv     |           4     15.38%     15.38% |           8     30.77%     46.15% |           8     30.77%     76.92% |           6     23.08%    100.00% (Unspecified)
system.caches.L1Cache_Controller.Inv::total           26                       (Unspecified)
system.caches.L1Cache_Controller.PutAck  |      109330     38.09%     38.09% |       58031     20.22%     58.31% |       51116     17.81%     76.12% |       68552     23.88%    100.00% (Unspecified)
system.caches.L1Cache_Controller.PutAck::total       287029                       (Unspecified)
system.caches.L1Cache_Controller.DataDirNoAcks |      133169     35.55%     35.55% |       78915     21.06%     56.61% |       69543     18.56%     75.17% |       93018     24.83%    100.00% (Unspecified)
system.caches.L1Cache_Controller.DataDirNoAcks::total       374645                       (Unspecified)
system.caches.L1Cache_Controller.DataOwner |        4982     21.98%     21.98% |        6686     29.49%     51.47% |        5498     24.25%     75.72% |        5504     24.28%    100.00% (Unspecified)
system.caches.L1Cache_Controller.DataOwner::total        22670                       (Unspecified)
system.caches.L1Cache_Controller.InvAck  |          18     69.23%     69.23% |           3     11.54%     80.77% |           4     15.38%     96.15% |           1      3.85%    100.00% (Unspecified)
system.caches.L1Cache_Controller.InvAck::total           26                       (Unspecified)
system.caches.L1Cache_Controller.WB_Data |        8828     31.37%     31.37% |        7441     26.44%     57.81% |        6029     21.43%     79.24% |        5842     20.76%    100.00% (Unspecified)
system.caches.L1Cache_Controller.WB_Data::total        28140                       (Unspecified)
system.caches.L1Cache_Controller.I.Load  |      102101     34.39%     34.39% |       64526     21.73%     56.12% |       56469     19.02%     75.14% |       73801     24.86%    100.00% (Unspecified)
system.caches.L1Cache_Controller.I.Load::total       296897                       (Unspecified)
system.caches.L1Cache_Controller.I.Store |       12454     93.54%     93.54% |         296      2.22%     95.76% |         303      2.28%     98.04% |         261      1.96%    100.00% (Unspecified)
system.caches.L1Cache_Controller.I.Store::total        13314                       (Unspecified)
system.caches.L1Cache_Controller.IS_D.FwdGetM |          67     33.67%     33.67% |          51     25.63%     59.30% |          25     12.56%     71.86% |          56     28.14%    100.00% (Unspecified)
system.caches.L1Cache_Controller.IS_D.FwdGetM::total          199                       (Unspecified)
system.caches.L1Cache_Controller.IS_D.DataDirNoAcks |       97272     35.40%     35.40% |       57975     21.10%     56.49% |       51138     18.61%     75.10% |       68425     24.90%    100.00% (Unspecified)
system.caches.L1Cache_Controller.IS_D.DataDirNoAcks::total       274810                       (Unspecified)
system.caches.L1Cache_Controller.IS_D.DataOwner |        4829     21.86%     21.86% |        6551     29.66%     51.52% |        5331     24.14%     75.66% |        5376     24.34%    100.00% (Unspecified)
system.caches.L1Cache_Controller.IS_D.DataOwner::total        22087                       (Unspecified)
system.caches.L1Cache_Controller.IM_AD.FwdGetM |          12     27.27%     27.27% |           7     15.91%     43.18% |          11     25.00%     68.18% |          14     31.82%    100.00% (Unspecified)
system.caches.L1Cache_Controller.IM_AD.FwdGetM::total           44                       (Unspecified)
system.caches.L1Cache_Controller.IM_AD.DataDirNoAcks |       12301     96.62%     96.62% |         161      1.26%     97.89% |         136      1.07%     98.96% |         133      1.04%    100.00% (Unspecified)
system.caches.L1Cache_Controller.IM_AD.DataDirNoAcks::total        12731                       (Unspecified)
system.caches.L1Cache_Controller.IM_AD.DataOwner |         153     26.24%     26.24% |         135     23.16%     49.40% |         167     28.64%     78.04% |         128     21.96%    100.00% (Unspecified)
system.caches.L1Cache_Controller.IM_AD.DataOwner::total          583                       (Unspecified)
system.caches.L1Cache_Controller.IM_AD.InvAck |          13     86.67%     86.67% |           1      6.67%     93.33% |           1      6.67%    100.00% |           0      0.00%    100.00% (Unspecified)
system.caches.L1Cache_Controller.IM_AD.InvAck::total           15                       (Unspecified)
system.caches.L1Cache_Controller.S.Load  |      109091     36.14%     36.14% |       62704     20.77%     56.91% |       55214     18.29%     75.20% |       74862     24.80%    100.00% (Unspecified)
system.caches.L1Cache_Controller.S.Load::total       301871                       (Unspecified)
system.caches.L1Cache_Controller.S.Store |       23596     27.09%     27.09% |       20779     23.86%     50.94% |       18269     20.97%     71.92% |       24460     28.08%    100.00% (Unspecified)
system.caches.L1Cache_Controller.S.Store::total        87104                       (Unspecified)
system.caches.L1Cache_Controller.S.Replacement |       73566     39.28%     39.28% |       37091     19.80%     59.09% |       32765     17.49%     76.58% |       43861     23.42%    100.00% (Unspecified)
system.caches.L1Cache_Controller.S.Replacement::total       187283                       (Unspecified)
system.caches.L1Cache_Controller.S.Inv   |           4     15.38%     15.38% |           8     30.77%     46.15% |           8     30.77%     76.92% |           6     23.08%    100.00% (Unspecified)
system.caches.L1Cache_Controller.S.Inv::total           26                       (Unspecified)
system.caches.L1Cache_Controller.SM_AD.DataDirNoAcks |       23596     27.09%     27.09% |       20779     23.86%     50.94% |       18269     20.97%     71.92% |       24460     28.08%    100.00% (Unspecified)
system.caches.L1Cache_Controller.SM_AD.DataDirNoAcks::total        87104                       (Unspecified)
system.caches.L1Cache_Controller.SM_AD.InvAck |           5     45.45%     45.45% |           2     18.18%     63.64% |           3     27.27%     90.91% |           1      9.09%    100.00% (Unspecified)
system.caches.L1Cache_Controller.SM_AD.InvAck::total           11                       (Unspecified)
system.caches.L1Cache_Controller.M.Load  |      109396     27.25%     27.25% |       95099     23.68%     50.93% |       83438     20.78%     71.71% |      113587     28.29%    100.00% (Unspecified)
system.caches.L1Cache_Controller.M.Load::total       401520                       (Unspecified)
system.caches.L1Cache_Controller.M.Store |       17651     99.34%     99.34% |          35      0.20%     99.53% |          53      0.30%     99.83% |          30      0.17%    100.00% (Unspecified)
system.caches.L1Cache_Controller.M.Store::total        17769                       (Unspecified)
system.caches.L1Cache_Controller.M.Replacement |       35764     35.86%     35.86% |       20940     20.99%     56.85% |       18351     18.40%     75.25% |       24691     24.75%    100.00% (Unspecified)
system.caches.L1Cache_Controller.M.Replacement::total        99746                       (Unspecified)
system.caches.L1Cache_Controller.M.FwdGetM |        5093     22.47%     22.47% |        6664     29.40%     51.86% |        5530     24.39%     76.25% |        5383     23.75%    100.00% (Unspecified)
system.caches.L1Cache_Controller.M.FwdGetM::total        22670                       (Unspecified)
system.caches.L1Cache_Controller.M_P.PutM |      159080     30.97%     30.97% |      115298     22.45%     53.42% |      101347     19.73%     73.16% |      137855     26.84%    100.00% (Unspecified)
system.caches.L1Cache_Controller.M_P.PutM::total       513580                       (Unspecified)
system.caches.L1Cache_Controller.M_P.Replacement |        4554     50.01%     50.01% |        1530     16.80%     66.81% |        1270     13.95%     80.75% |        1753     19.25%    100.00% (Unspecified)
system.caches.L1Cache_Controller.M_P.Replacement::total         9107                       (Unspecified)
system.caches.L1Cache_Controller.M_P.FwdGetM |        4279     22.47%     22.47% |        5916     31.06%     53.53% |        4761     25.00%     78.53% |        4090     21.47%    100.00% (Unspecified)
system.caches.L1Cache_Controller.M_P.FwdGetM::total        19046                       (Unspecified)
system.caches.L1Cache_Controller.MP_D.PutM |           5     38.46%     38.46% |           5     38.46%     76.92% |           2     15.38%     92.31% |           1      7.69%    100.00% (Unspecified)
system.caches.L1Cache_Controller.MP_D.PutM::total           13                       (Unspecified)
system.caches.L1Cache_Controller.MP_D.Replacement |        4555     50.01%     50.01% |        1530     16.80%     66.81% |        1270     13.94%     80.75% |        1753     19.25%    100.00% (Unspecified)
system.caches.L1Cache_Controller.MP_D.Replacement::total         9108                       (Unspecified)
system.caches.L1Cache_Controller.MP_D.FwdGetM |          23     34.85%     34.85% |          18     27.27%     62.12% |          13     19.70%     81.82% |          12     18.18%    100.00% (Unspecified)
system.caches.L1Cache_Controller.MP_D.FwdGetM::total           66                       (Unspecified)
system.caches.L1Cache_Controller.MP_D.WB_Data |        8828     31.37%     31.37% |        7441     26.44%     57.81% |        6029     21.43%     79.24% |        5842     20.76%    100.00% (Unspecified)
system.caches.L1Cache_Controller.MP_D.WB_Data::total        28140                       (Unspecified)
system.caches.L1Cache_Controller.MI_A.Replacement |       35829     35.85%     35.85% |       20982     21.00%     56.85% |       18386     18.40%     75.25% |       24738     24.75%    100.00% (Unspecified)
system.caches.L1Cache_Controller.MI_A.Replacement::total        99935                       (Unspecified)
system.caches.L1Cache_Controller.MI_A.PutAck |       35764     35.86%     35.86% |       20940     20.99%     56.85% |       18351     18.40%     75.25% |       24691     24.75%    100.00% (Unspecified)
system.caches.L1Cache_Controller.MI_A.PutAck::total        99746                       (Unspecified)
system.caches.L1Cache_Controller.SI_A.Replacement |       73661     39.27%     39.27% |       37155     19.81%     59.08% |       32849     17.51%     76.59% |       43918     23.41%    100.00% (Unspecified)
system.caches.L1Cache_Controller.SI_A.Replacement::total       187583                       (Unspecified)
system.caches.L1Cache_Controller.SI_A.PutAck |       73566     39.28%     39.28% |       37091     19.80%     59.09% |       32765     17.49%     76.58% |       43861     23.42%    100.00% (Unspecified)
system.caches.L1Cache_Controller.SI_A.PutAck::total       187283                       (Unspecified)
system.caches.Directory_Controller.GetS        296897      0.00%      0.00% (Unspecified)
system.caches.Directory_Controller.GetM        100418      0.00%      0.00% (Unspecified)
system.caches.Directory_Controller.PutSNotLast        74026      0.00%      0.00% (Unspecified)
system.caches.Directory_Controller.PutSLast        53700      0.00%      0.00% (Unspecified)
system.caches.Directory_Controller.PutSLastWT        59557      0.00%      0.00% (Unspecified)
system.caches.Directory_Controller.PutMOwner        56268      0.00%      0.00% (Unspecified)
system.caches.Directory_Controller.PutMOwnerWT        43478      0.00%      0.00% (Unspecified)
system.caches.Directory_Controller.Sync         20656      0.00%      0.00% (Unspecified)
system.caches.Directory_Controller.MemData       102772      0.00%      0.00% (Unspecified)
system.caches.Directory_Controller.LastMemAck       123691      0.00%      0.00% (Unspecified)
system.caches.Directory_Controller.I.GetS        91474      0.00%      0.00% (Unspecified)
system.caches.Directory_Controller.I.GetM        11298      0.00%      0.00% (Unspecified)
system.caches.Directory_Controller.S.GetS        74227      0.00%      0.00% (Unspecified)
system.caches.Directory_Controller.S.GetM        87113      0.00%      0.00% (Unspecified)
system.caches.Directory_Controller.S.PutSNotLast        74026      0.00%      0.00% (Unspecified)
system.caches.Directory_Controller.S.PutSLast        53700      0.00%      0.00% (Unspecified)
system.caches.Directory_Controller.S.PutSLastWT        59557      0.00%      0.00% (Unspecified)
system.caches.Directory_Controller.M.GetS        22087      0.00%      0.00% (Unspecified)
system.caches.Directory_Controller.M.GetM          583      0.00%      0.00% (Unspecified)
system.caches.Directory_Controller.M.PutMOwner        56268      0.00%      0.00% (Unspecified)
system.caches.Directory_Controller.M.PutMOwnerWT        43478      0.00%      0.00% (Unspecified)
system.caches.Directory_Controller.LLCOnly.GetS       109109      0.00%      0.00% (Unspecified)
system.caches.Directory_Controller.LLCOnly.GetM         1424      0.00%      0.00% (Unspecified)
system.caches.Directory_Controller.LLCOnly.Sync        20656      0.00%      0.00% (Unspecified)
system.caches.Directory_Controller.LLCOnly_m.LastMemAck        80213      0.00%      0.00% (Unspecified)
system.caches.Directory_Controller.S_m.MemData        91474      0.00%      0.00% (Unspecified)
system.caches.Directory_Controller.M_m.MemData        11298      0.00%      0.00% (Unspecified)
system.caches.Directory_Controller.MI_m.LastMemAck        43478      0.00%      0.00% (Unspecified)
system.caches.RequestType.LD.latency_hist_seqr::bucket_size          128                       (Unspecified)
system.caches.RequestType.LD.latency_hist_seqr::max_bucket         1279                       (Unspecified)
system.caches.RequestType.LD.latency_hist_seqr::samples     13715612                       (Unspecified)
system.caches.RequestType.LD.latency_hist_seqr::mean     5.198074                       (Unspecified)
system.caches.RequestType.LD.latency_hist_seqr::gmean     1.248937                       (Unspecified)
system.caches.RequestType.LD.latency_hist_seqr::stdev    34.365932                       (Unspecified)
system.caches.RequestType.LD.latency_hist_seqr |    13567379     98.92%     98.92% |       63135      0.46%     99.38% |       52879      0.39%     99.77% |       19554      0.14%     99.91% |        8801      0.06%     99.97% |        2993      0.02%     99.99% |         723      0.01%    100.00% |         132      0.00%    100.00% |          16      0.00%    100.00% |           0      0.00%    100.00% (Unspecified)
system.caches.RequestType.LD.latency_hist_seqr::total     13715612                       (Unspecified)
system.caches.RequestType.LD.hit_latency_hist_seqr::bucket_size            1                       (Unspecified)
system.caches.RequestType.LD.hit_latency_hist_seqr::max_bucket            9                       (Unspecified)
system.caches.RequestType.LD.hit_latency_hist_seqr::samples     12755479                       (Unspecified)
system.caches.RequestType.LD.hit_latency_hist_seqr::mean            1                       (Unspecified)
system.caches.RequestType.LD.hit_latency_hist_seqr::gmean            1                       (Unspecified)
system.caches.RequestType.LD.hit_latency_hist_seqr |           0      0.00%      0.00% |    12755479    100.00%    100.00% |           0      0.00%    100.00% |           0      0.00%    100.00% |           0      0.00%    100.00% |           0      0.00%    100.00% |           0      0.00%    100.00% |           0      0.00%    100.00% |           0      0.00%    100.00% |           0      0.00%    100.00% (Unspecified)
system.caches.RequestType.LD.hit_latency_hist_seqr::total     12755479                       (Unspecified)
system.caches.RequestType.LD.miss_latency_hist_seqr::bucket_size          128                       (Unspecified)
system.caches.RequestType.LD.miss_latency_hist_seqr::max_bucket         1279                       (Unspecified)
system.caches.RequestType.LD.miss_latency_hist_seqr::samples       960133                       (Unspecified)
system.caches.RequestType.LD.miss_latency_hist_seqr::mean    60.969974                       (Unspecified)
system.caches.RequestType.LD.miss_latency_hist_seqr::gmean    23.938262                       (Unspecified)
system.caches.RequestType.LD.miss_latency_hist_seqr::stdev   116.302809                       (Unspecified)
system.caches.RequestType.LD.miss_latency_hist_seqr |      811900     84.56%     84.56% |       63135      6.58%     91.14% |       52879      5.51%     96.64% |       19554      2.04%     98.68% |        8801      0.92%     99.60% |        2993      0.31%     99.91% |         723      0.08%     99.98% |         132      0.01%    100.00% |          16      0.00%    100.00% |           0      0.00%    100.00% (Unspecified)
system.caches.RequestType.LD.miss_latency_hist_seqr::total       960133                       (Unspecified)
system.caches.RequestType.ST.latency_hist_seqr::bucket_size          128                       (Unspecified)
system.caches.RequestType.ST.latency_hist_seqr::max_bucket         1279                       (Unspecified)
system.caches.RequestType.ST.latency_hist_seqr::samples      6371534                       (Unspecified)
system.caches.RequestType.ST.latency_hist_seqr::mean     2.511373                       (Unspecified)
system.caches.RequestType.ST.latency_hist_seqr::gmean     1.072299                       (Unspecified)
system.caches.RequestType.ST.latency_hist_seqr::stdev    18.048388                       (Unspecified)
system.caches.RequestType.ST.latency_hist_seqr |     6342201     99.54%     99.54% |       16654      0.26%     99.80% |       12062      0.19%     99.99% |         566      0.01%    100.00% |          29      0.00%    100.00% |          19      0.00%    100.00% |           3      0.00%    100.00% |           0      0.00%    100.00% |           0      0.00%    100.00% |           0      0.00%    100.00% (Unspecified)
system.caches.RequestType.ST.latency_hist_seqr::total      6371534                       (Unspecified)
system.caches.RequestType.ST.hit_latency_hist_seqr::bucket_size            1                       (Unspecified)
system.caches.RequestType.ST.hit_latency_hist_seqr::max_bucket            9                       (Unspecified)
system.caches.RequestType.ST.hit_latency_hist_seqr::samples      6254535                       (Unspecified)
system.caches.RequestType.ST.hit_latency_hist_seqr::mean            1                       (Unspecified)
system.caches.RequestType.ST.hit_latency_hist_seqr::gmean            1                       (Unspecified)
system.caches.RequestType.ST.hit_latency_hist_seqr |           0      0.00%      0.00% |     6254535    100.00%    100.00% |           0      0.00%    100.00% |           0      0.00%    100.00% |           0      0.00%    100.00% |           0      0.00%    100.00% |           0      0.00%    100.00% |           0      0.00%    100.00% |           0      0.00%    100.00% |           0      0.00%    100.00% (Unspecified)
system.caches.RequestType.ST.hit_latency_hist_seqr::total      6254535                       (Unspecified)
system.caches.RequestType.ST.miss_latency_hist_seqr::bucket_size          128                       (Unspecified)
system.caches.RequestType.ST.miss_latency_hist_seqr::max_bucket         1279                       (Unspecified)
system.caches.RequestType.ST.miss_latency_hist_seqr::samples       116999                       (Unspecified)
system.caches.RequestType.ST.miss_latency_hist_seqr::mean    83.306362                       (Unspecified)
system.caches.RequestType.ST.miss_latency_hist_seqr::gmean    44.765031                       (Unspecified)
system.caches.RequestType.ST.miss_latency_hist_seqr::stdev   105.306890                       (Unspecified)
system.caches.RequestType.ST.miss_latency_hist_seqr |       87666     74.93%     74.93% |       16654     14.23%     89.16% |       12062     10.31%     99.47% |         566      0.48%     99.96% |          29      0.02%     99.98% |          19      0.02%    100.00% |           3      0.00%    100.00% |           0      0.00%    100.00% |           0      0.00%    100.00% |           0      0.00%    100.00% (Unspecified)
system.caches.RequestType.ST.miss_latency_hist_seqr::total       116999                       (Unspecified)
system.caches.RequestType.IFETCH.latency_hist_seqr::bucket_size          128                       (Unspecified)
system.caches.RequestType.IFETCH.latency_hist_seqr::max_bucket         1279                       (Unspecified)
system.caches.RequestType.IFETCH.latency_hist_seqr::samples     70394157                       (Unspecified)
system.caches.RequestType.IFETCH.latency_hist_seqr::mean     1.077704                       (Unspecified)
system.caches.RequestType.IFETCH.latency_hist_seqr::gmean     1.002484                       (Unspecified)
system.caches.RequestType.IFETCH.latency_hist_seqr::stdev     4.742185                       (Unspecified)
system.caches.RequestType.IFETCH.latency_hist_seqr |    70378466     99.98%     99.98% |        7828      0.01%     99.99% |        5691      0.01%    100.00% |        1275      0.00%    100.00% |         634      0.00%    100.00% |         220      0.00%    100.00% |          37      0.00%    100.00% |           6      0.00%    100.00% |           0      0.00%    100.00% |           0      0.00%    100.00% (Unspecified)
system.caches.RequestType.IFETCH.latency_hist_seqr::total     70394157                       (Unspecified)
system.caches.RequestType.IFETCH.hit_latency_hist_seqr::bucket_size            1                       (Unspecified)
system.caches.RequestType.IFETCH.hit_latency_hist_seqr::max_bucket            9                       (Unspecified)
system.caches.RequestType.IFETCH.hit_latency_hist_seqr::samples     70354002                       (Unspecified)
system.caches.RequestType.IFETCH.hit_latency_hist_seqr::mean            1                       (Unspecified)
system.caches.RequestType.IFETCH.hit_latency_hist_seqr::gmean            1                       (Unspecified)
system.caches.RequestType.IFETCH.hit_latency_hist_seqr |           0      0.00%      0.00% |    70354002    100.00%    100.00% |           0      0.00%    100.00% |           0      0.00%    100.00% |           0      0.00%    100.00% |           0      0.00%    100.00% |           0      0.00%    100.00% |           0      0.00%    100.00% |           0      0.00%    100.00% |           0      0.00%    100.00% (Unspecified)
system.caches.RequestType.IFETCH.hit_latency_hist_seqr::total     70354002                       (Unspecified)
system.caches.RequestType.IFETCH.miss_latency_hist_seqr::bucket_size          128                       (Unspecified)
system.caches.RequestType.IFETCH.miss_latency_hist_seqr::max_bucket         1279                       (Unspecified)
system.caches.RequestType.IFETCH.miss_latency_hist_seqr::samples        40155                       (Unspecified)
system.caches.RequestType.IFETCH.miss_latency_hist_seqr::mean   137.220496                       (Unspecified)
system.caches.RequestType.IFETCH.miss_latency_hist_seqr::gmean    77.357798                       (Unspecified)
system.caches.RequestType.IFETCH.miss_latency_hist_seqr::stdev   144.493827                       (Unspecified)
system.caches.RequestType.IFETCH.miss_latency_hist_seqr |       24464     60.92%     60.92% |        7828     19.49%     80.42% |        5691     14.17%     94.59% |        1275      3.18%     97.77% |         634      1.58%     99.35% |         220      0.55%     99.89% |          37      0.09%     99.99% |           6      0.01%    100.00% |           0      0.00%    100.00% |           0      0.00%    100.00% (Unspecified)
system.caches.RequestType.IFETCH.miss_latency_hist_seqr::total        40155                       (Unspecified)
system.caches.RequestType.RMW_Read.latency_hist_seqr::bucket_size           64                       (Unspecified)
system.caches.RequestType.RMW_Read.latency_hist_seqr::max_bucket          639                       (Unspecified)
system.caches.RequestType.RMW_Read.latency_hist_seqr::samples         2639                       (Unspecified)
system.caches.RequestType.RMW_Read.latency_hist_seqr::mean    14.525578                       (Unspecified)
system.caches.RequestType.RMW_Read.latency_hist_seqr::gmean     2.078183                       (Unspecified)
system.caches.RequestType.RMW_Read.latency_hist_seqr::stdev    49.418514                       (Unspecified)
system.caches.RequestType.RMW_Read.latency_hist_seqr |        2527     95.76%     95.76% |          19      0.72%     96.48% |          28      1.06%     97.54% |          19      0.72%     98.26% |          24      0.91%     99.17% |          21      0.80%     99.96% |           0      0.00%     99.96% |           0      0.00%     99.96% |           1      0.04%    100.00% |           0      0.00%    100.00% (Unspecified)
system.caches.RequestType.RMW_Read.latency_hist_seqr::total         2639                       (Unspecified)
system.caches.RequestType.RMW_Read.hit_latency_hist_seqr::bucket_size            1                       (Unspecified)
system.caches.RequestType.RMW_Read.hit_latency_hist_seqr::max_bucket            9                       (Unspecified)
system.caches.RequestType.RMW_Read.hit_latency_hist_seqr::samples         2106                       (Unspecified)
system.caches.RequestType.RMW_Read.hit_latency_hist_seqr::mean            1                       (Unspecified)
system.caches.RequestType.RMW_Read.hit_latency_hist_seqr::gmean            1                       (Unspecified)
system.caches.RequestType.RMW_Read.hit_latency_hist_seqr |           0      0.00%      0.00% |        2106    100.00%    100.00% |           0      0.00%    100.00% |           0      0.00%    100.00% |           0      0.00%    100.00% |           0      0.00%    100.00% |           0      0.00%    100.00% |           0      0.00%    100.00% |           0      0.00%    100.00% |           0      0.00%    100.00% (Unspecified)
system.caches.RequestType.RMW_Read.hit_latency_hist_seqr::total         2106                       (Unspecified)
system.caches.RequestType.RMW_Read.miss_latency_hist_seqr::bucket_size           64                       (Unspecified)
system.caches.RequestType.RMW_Read.miss_latency_hist_seqr::max_bucket          639                       (Unspecified)
system.caches.RequestType.RMW_Read.miss_latency_hist_seqr::samples          533                       (Unspecified)
system.caches.RequestType.RMW_Read.miss_latency_hist_seqr::mean    67.968105                       (Unspecified)
system.caches.RequestType.RMW_Read.miss_latency_hist_seqr::gmean    37.404326                       (Unspecified)
system.caches.RequestType.RMW_Read.miss_latency_hist_seqr::stdev    92.327043                       (Unspecified)
system.caches.RequestType.RMW_Read.miss_latency_hist_seqr |         421     78.99%     78.99% |          19      3.56%     82.55% |          28      5.25%     87.80% |          19      3.56%     91.37% |          24      4.50%     95.87% |          21      3.94%     99.81% |           0      0.00%     99.81% |           0      0.00%     99.81% |           1      0.19%    100.00% |           0      0.00%    100.00% (Unspecified)
system.caches.RequestType.RMW_Read.miss_latency_hist_seqr::total          533                       (Unspecified)
system.caches.RequestType.Locked_RMW_Read.latency_hist_seqr::bucket_size          128                       (Unspecified)
system.caches.RequestType.Locked_RMW_Read.latency_hist_seqr::max_bucket         1279                       (Unspecified)
system.caches.RequestType.Locked_RMW_Read.latency_hist_seqr::samples         1913                       (Unspecified)
system.caches.RequestType.Locked_RMW_Read.latency_hist_seqr::mean    48.863042                       (Unspecified)
system.caches.RequestType.Locked_RMW_Read.latency_hist_seqr::gmean     4.480311                       (Unspecified)
system.caches.RequestType.Locked_RMW_Read.latency_hist_seqr::stdev   119.406990                       (Unspecified)
system.caches.RequestType.Locked_RMW_Read.latency_hist_seqr |        1688     88.24%     88.24% |         110      5.75%     93.99% |          41      2.14%     96.13% |          30      1.57%     97.70% |          27      1.41%     99.11% |          16      0.84%     99.95% |           0      0.00%     99.95% |           1      0.05%    100.00% |           0      0.00%    100.00% |           0      0.00%    100.00% (Unspecified)
system.caches.RequestType.Locked_RMW_Read.latency_hist_seqr::total         1913                       (Unspecified)
system.caches.RequestType.Locked_RMW_Read.hit_latency_hist_seqr::bucket_size            1                       (Unspecified)
system.caches.RequestType.Locked_RMW_Read.hit_latency_hist_seqr::max_bucket            9                       (Unspecified)
system.caches.RequestType.Locked_RMW_Read.hit_latency_hist_seqr::samples         1258                       (Unspecified)
system.caches.RequestType.Locked_RMW_Read.hit_latency_hist_seqr::mean            1                       (Unspecified)
system.caches.RequestType.Locked_RMW_Read.hit_latency_hist_seqr::gmean            1                       (Unspecified)
system.caches.RequestType.Locked_RMW_Read.hit_latency_hist_seqr |           0      0.00%      0.00% |        1258    100.00%    100.00% |           0      0.00%    100.00% |           0      0.00%    100.00% |           0      0.00%    100.00% |           0      0.00%    100.00% |           0      0.00%    100.00% |           0      0.00%    100.00% |           0      0.00%    100.00% |           0      0.00%    100.00% (Unspecified)
system.caches.RequestType.Locked_RMW_Read.hit_latency_hist_seqr::total         1258                       (Unspecified)
system.caches.RequestType.Locked_RMW_Read.miss_latency_hist_seqr::bucket_size          128                       (Unspecified)
system.caches.RequestType.Locked_RMW_Read.miss_latency_hist_seqr::max_bucket         1279                       (Unspecified)
system.caches.RequestType.Locked_RMW_Read.miss_latency_hist_seqr::samples          655                       (Unspecified)
system.caches.RequestType.Locked_RMW_Read.miss_latency_hist_seqr::mean   140.789313                       (Unspecified)
system.caches.RequestType.Locked_RMW_Read.miss_latency_hist_seqr::gmean    79.839468                       (Unspecified)
system.caches.RequestType.Locked_RMW_Read.miss_latency_hist_seqr::stdev   169.747064                       (Unspecified)
system.caches.RequestType.Locked_RMW_Read.miss_latency_hist_seqr |         430     65.65%     65.65% |         110     16.79%     82.44% |          41      6.26%     88.70% |          30      4.58%     93.28% |          27      4.12%     97.40% |          16      2.44%     99.85% |           0      0.00%     99.85% |           1      0.15%    100.00% |           0      0.00%    100.00% |           0      0.00%    100.00% (Unspecified)
system.caches.RequestType.Locked_RMW_Read.miss_latency_hist_seqr::total          655                       (Unspecified)
system.caches.RequestType.Locked_RMW_Write.latency_hist_seqr::bucket_size            1                       (Unspecified)
system.caches.RequestType.Locked_RMW_Write.latency_hist_seqr::max_bucket            9                       (Unspecified)
system.caches.RequestType.Locked_RMW_Write.latency_hist_seqr::samples         1913                       (Unspecified)
system.caches.RequestType.Locked_RMW_Write.latency_hist_seqr::mean            1                       (Unspecified)
system.caches.RequestType.Locked_RMW_Write.latency_hist_seqr::gmean            1                       (Unspecified)
system.caches.RequestType.Locked_RMW_Write.latency_hist_seqr |           0      0.00%      0.00% |        1913    100.00%    100.00% |           0      0.00%    100.00% |           0      0.00%    100.00% |           0      0.00%    100.00% |           0      0.00%    100.00% |           0      0.00%    100.00% |           0      0.00%    100.00% |           0      0.00%    100.00% |           0      0.00%    100.00% (Unspecified)
system.caches.RequestType.Locked_RMW_Write.latency_hist_seqr::total         1913                       (Unspecified)
system.caches.RequestType.Locked_RMW_Write.hit_latency_hist_seqr::bucket_size            1                       (Unspecified)
system.caches.RequestType.Locked_RMW_Write.hit_latency_hist_seqr::max_bucket            9                       (Unspecified)
system.caches.RequestType.Locked_RMW_Write.hit_latency_hist_seqr::samples         1913                       (Unspecified)
system.caches.RequestType.Locked_RMW_Write.hit_latency_hist_seqr::mean            1                       (Unspecified)
system.caches.RequestType.Locked_RMW_Write.hit_latency_hist_seqr::gmean            1                       (Unspecified)
system.caches.RequestType.Locked_RMW_Write.hit_latency_hist_seqr |           0      0.00%      0.00% |        1913    100.00%    100.00% |           0      0.00%    100.00% |           0      0.00%    100.00% |           0      0.00%    100.00% |           0      0.00%    100.00% |           0      0.00%    100.00% |           0      0.00%    100.00% |           0      0.00%    100.00% |           0      0.00%    100.00% (Unspecified)
system.caches.RequestType.Locked_RMW_Write.hit_latency_hist_seqr::total         1913                       (Unspecified)
system.caches.controllers0.DCache.m_demand_hits            0                       # Number of cache demand hits (Unspecified)
system.caches.controllers0.DCache.m_demand_misses            0                       # Number of cache demand misses (Unspecified)
system.caches.controllers0.DCache.m_demand_accesses            0                       # Number of cache demand accesses (Unspecified)
system.caches.controllers0.ICache.m_demand_hits            0                       # Number of cache demand hits (Unspecified)
system.caches.controllers0.ICache.m_demand_misses            0                       # Number of cache demand misses (Unspecified)
system.caches.controllers0.ICache.m_demand_accesses            0                       # Number of cache demand accesses (Unspecified)
system.caches.controllers0.forwardFromL1.m_buf_msgs     1.310766                       # Average number of messages in buffer (Unspecified)
system.caches.controllers0.forwardFromL1.m_stall_time  5000.512122                       # Average number of cycles messages are stalled in this MB (Unspecified)
system.caches.controllers0.mandatoryQueue.m_buf_msgs     0.335742                       # Average number of messages in buffer (Unspecified)
system.caches.controllers0.mandatoryQueue.m_stall_time   999.999990                       # Average number of cycles messages are stalled in this MB (Unspecified)
system.caches.controllers0.power_state.pwrStateResidencyTicks::UNDEFINED 105062911000                       # Cumulative time (in ticks) in various power states (Tick)
system.caches.controllers0.requestToL1.m_buf_msgs     0.005077                       # Average number of messages in buffer (Unspecified)
system.caches.controllers0.requestToL1.m_stall_time   999.999981                       # Average number of cycles messages are stalled in this MB (Unspecified)
system.caches.controllers0.responseFromL1.m_buf_msgs     0.003563                       # Average number of messages in buffer (Unspecified)
system.caches.controllers0.responseFromL1.m_stall_time  4999.993766                       # Average number of cycles messages are stalled in this MB (Unspecified)
system.caches.controllers0.responseToL1.m_buf_msgs     0.000084                       # Average number of messages in buffer (Unspecified)
system.caches.controllers0.responseToL1.m_stall_time   999.847977                       # Average number of cycles messages are stalled in this MB (Unspecified)
system.caches.controllers0.xyzStatsObject.power_state.pwrStateResidencyTicks::UNDEFINED 105062911000                       # Cumulative time (in ticks) in various power states (Tick)
system.caches.controllers1.DCache.m_demand_hits            0                       # Number of cache demand hits (Unspecified)
system.caches.controllers1.DCache.m_demand_misses            0                       # Number of cache demand misses (Unspecified)
system.caches.controllers1.DCache.m_demand_accesses            0                       # Number of cache demand accesses (Unspecified)
system.caches.controllers1.ICache.m_demand_hits            0                       # Number of cache demand hits (Unspecified)
system.caches.controllers1.ICache.m_demand_misses            0                       # Number of cache demand misses (Unspecified)
system.caches.controllers1.ICache.m_demand_accesses            0                       # Number of cache demand accesses (Unspecified)
system.caches.controllers1.forwardFromL1.m_buf_msgs     2.245352                       # Average number of messages in buffer (Unspecified)
system.caches.controllers1.forwardFromL1.m_stall_time  2883.724867                       # Average number of cycles messages are stalled in this MB (Unspecified)
system.caches.controllers1.mandatoryQueue.m_buf_msgs     0.171812                       # Average number of messages in buffer (Unspecified)
system.caches.controllers1.mandatoryQueue.m_stall_time   576.665090                       # Average number of cycles messages are stalled in this MB (Unspecified)
system.caches.controllers1.power_state.pwrStateResidencyTicks::UNDEFINED 105062911000                       # Cumulative time (in ticks) in various power states (Tick)
system.caches.controllers1.requestToL1.m_buf_msgs     0.003415                       # Average number of messages in buffer (Unspecified)
system.caches.controllers1.requestToL1.m_stall_time   576.665080                       # Average number of cycles messages are stalled in this MB (Unspecified)
system.caches.controllers1.responseFromL1.m_buf_msgs     0.002317                       # Average number of messages in buffer (Unspecified)
system.caches.controllers1.responseFromL1.m_stall_time  2883.324116                       # Average number of cycles messages are stalled in this MB (Unspecified)
system.caches.controllers1.responseToL1.m_buf_msgs     0.000071                       # Average number of messages in buffer (Unspecified)
system.caches.controllers1.responseToL1.m_stall_time   576.315061                       # Average number of cycles messages are stalled in this MB (Unspecified)
system.caches.controllers1.xyzStatsObject.power_state.pwrStateResidencyTicks::UNDEFINED 105062911000                       # Cumulative time (in ticks) in various power states (Tick)
system.caches.controllers2.DCache.m_demand_hits            0                       # Number of cache demand hits (Unspecified)
system.caches.controllers2.DCache.m_demand_misses            0                       # Number of cache demand misses (Unspecified)
system.caches.controllers2.DCache.m_demand_accesses            0                       # Number of cache demand accesses (Unspecified)
system.caches.controllers2.ICache.m_demand_hits            0                       # Number of cache demand hits (Unspecified)
system.caches.controllers2.ICache.m_demand_misses            0                       # Number of cache demand misses (Unspecified)
system.caches.controllers2.ICache.m_demand_accesses            0                       # Number of cache demand accesses (Unspecified)
system.caches.controllers2.forwardFromL1.m_buf_msgs     2.195669                       # Average number of messages in buffer (Unspecified)
system.caches.controllers2.forwardFromL1.m_stall_time  2880.940649                       # Average number of cycles messages are stalled in this MB (Unspecified)
system.caches.controllers2.forwardFromL1.m_stall_count            1                       # Number of times messages were stalled (Unspecified)
system.caches.controllers2.mandatoryQueue.m_buf_msgs     0.151048                       # Average number of messages in buffer (Unspecified)
system.caches.controllers2.mandatoryQueue.m_stall_time   576.147305                       # Average number of cycles messages are stalled in this MB (Unspecified)
system.caches.controllers2.power_state.pwrStateResidencyTicks::UNDEFINED 105062911000                       # Cumulative time (in ticks) in various power states (Tick)
system.caches.controllers2.requestToL1.m_buf_msgs     0.002999                       # Average number of messages in buffer (Unspecified)
system.caches.controllers2.requestToL1.m_stall_time   576.147295                       # Average number of cycles messages are stalled in this MB (Unspecified)
system.caches.controllers2.responseFromL1.m_buf_msgs     0.002034                       # Average number of messages in buffer (Unspecified)
system.caches.controllers2.responseFromL1.m_stall_time  2880.730813                       # Average number of cycles messages are stalled in this MB (Unspecified)
system.caches.controllers2.responseToL1.m_buf_msgs     0.000057                       # Average number of messages in buffer (Unspecified)
system.caches.controllers2.responseToL1.m_stall_time   576.053637                       # Average number of cycles messages are stalled in this MB (Unspecified)
system.caches.controllers2.xyzStatsObject.power_state.pwrStateResidencyTicks::UNDEFINED 105062911000                       # Cumulative time (in ticks) in various power states (Tick)
system.caches.controllers3.DCache.m_demand_hits            0                       # Number of cache demand hits (Unspecified)
system.caches.controllers3.DCache.m_demand_misses            0                       # Number of cache demand misses (Unspecified)
system.caches.controllers3.DCache.m_demand_accesses            0                       # Number of cache demand accesses (Unspecified)
system.caches.controllers3.ICache.m_demand_hits            0                       # Number of cache demand hits (Unspecified)
system.caches.controllers3.ICache.m_demand_misses            0                       # Number of cache demand misses (Unspecified)
system.caches.controllers3.ICache.m_demand_accesses            0                       # Number of cache demand accesses (Unspecified)
system.caches.controllers3.forwardFromL1.m_buf_msgs     1.561466                       # Average number of messages in buffer (Unspecified)
system.caches.controllers3.forwardFromL1.m_stall_time  2878.416990                       # Average number of cycles messages are stalled in this MB (Unspecified)
system.caches.controllers3.mandatoryQueue.m_buf_msgs     0.202671                       # Average number of messages in buffer (Unspecified)
system.caches.controllers3.mandatoryQueue.m_stall_time   575.578046                       # Average number of cycles messages are stalled in this MB (Unspecified)
system.caches.controllers3.power_state.pwrStateResidencyTicks::UNDEFINED 105062911000                       # Cumulative time (in ticks) in various power states (Tick)
system.caches.controllers3.requestToL1.m_buf_msgs     0.004044                       # Average number of messages in buffer (Unspecified)
system.caches.controllers3.requestToL1.m_stall_time   575.578036                       # Average number of cycles messages are stalled in this MB (Unspecified)
system.caches.controllers3.responseFromL1.m_buf_msgs     0.002732                       # Average number of messages in buffer (Unspecified)
system.caches.controllers3.responseFromL1.m_stall_time  2877.878522                       # Average number of cycles messages are stalled in this MB (Unspecified)
system.caches.controllers3.responseToL1.m_buf_msgs     0.000056                       # Average number of messages in buffer (Unspecified)
system.caches.controllers3.responseToL1.m_stall_time   575.486900                       # Average number of cycles messages are stalled in this MB (Unspecified)
system.caches.controllers3.xyzStatsObject.power_state.pwrStateResidencyTicks::UNDEFINED 105062911000                       # Cumulative time (in ticks) in various power states (Tick)
system.caches.controllers4.cacheMemory.m_demand_hits            0                       # Number of cache demand hits (Unspecified)
system.caches.controllers4.cacheMemory.m_demand_misses            0                       # Number of cache demand misses (Unspecified)
system.caches.controllers4.cacheMemory.m_demand_accesses            0                       # Number of cache demand accesses (Unspecified)
system.caches.controllers4.forwardFromDir.m_buf_msgs     0.001503                       # Average number of messages in buffer (Unspecified)
system.caches.controllers4.forwardFromDir.m_stall_time  5455.182105                       # Average number of cycles messages are stalled in this MB (Unspecified)
system.caches.controllers4.forwardFromDir.m_stall_count         4381                       # Number of times messages were stalled (Unspecified)
system.caches.controllers4.forwardToL0.m_buf_msgs     0.000784                       # Average number of messages in buffer (Unspecified)
system.caches.controllers4.forwardToL0.m_stall_time   999.913242                       # Average number of cycles messages are stalled in this MB (Unspecified)
system.caches.controllers4.power_state.pwrStateResidencyTicks::UNDEFINED 105062911000                       # Cumulative time (in ticks) in various power states (Tick)
system.caches.controllers4.requestFromL0.m_buf_msgs     0.032578                       # Average number of messages in buffer (Unspecified)
system.caches.controllers4.requestFromL0.m_stall_time 16398.219425                       # Average number of cycles messages are stalled in this MB (Unspecified)
system.caches.controllers4.requestFromL0.m_stall_count       114045                       # Number of times messages were stalled (Unspecified)
system.caches.controllers4.requestToDir.m_buf_msgs     0.002356                       # Average number of messages in buffer (Unspecified)
system.caches.controllers4.requestToDir.m_stall_time   999.999933                       # Average number of cycles messages are stalled in this MB (Unspecified)
system.caches.controllers4.responseFromDirOrSibling.m_buf_msgs     0.001315                       # Average number of messages in buffer (Unspecified)
system.caches.controllers4.responseFromDirOrSibling.m_stall_time 12773.663401                       # Average number of cycles messages are stalled in this MB (Unspecified)
system.caches.controllers4.responseFromL0.m_buf_msgs     0.000084                       # Average number of messages in buffer (Unspecified)
system.caches.controllers4.responseFromL0.m_stall_time  4999.259053                       # Average number of cycles messages are stalled in this MB (Unspecified)
system.caches.controllers4.responseToDirOrSibling.m_buf_msgs     0.000049                       # Average number of messages in buffer (Unspecified)
system.caches.controllers4.responseToDirOrSibling.m_stall_time   576.663681                       # Average number of cycles messages are stalled in this MB (Unspecified)
system.caches.controllers4.responseToL0.m_buf_msgs     0.003563                       # Average number of messages in buffer (Unspecified)
system.caches.controllers4.responseToL0.m_stall_time   999.998791                       # Average number of cycles messages are stalled in this MB (Unspecified)
system.caches.controllers4.xyzStatsObject.power_state.pwrStateResidencyTicks::UNDEFINED 105062911000                       # Cumulative time (in ticks) in various power states (Tick)
system.caches.controllers5.cacheMemory.m_demand_hits            0                       # Number of cache demand hits (Unspecified)
system.caches.controllers5.cacheMemory.m_demand_misses            0                       # Number of cache demand misses (Unspecified)
system.caches.controllers5.cacheMemory.m_demand_accesses            0                       # Number of cache demand accesses (Unspecified)
system.caches.controllers5.forwardFromDir.m_buf_msgs     0.001184                       # Average number of messages in buffer (Unspecified)
system.caches.controllers5.forwardFromDir.m_stall_time  3689.625362                       # Average number of cycles messages are stalled in this MB (Unspecified)
system.caches.controllers5.forwardFromDir.m_stall_count         5992                       # Number of times messages were stalled (Unspecified)
system.caches.controllers5.forwardToL0.m_buf_msgs     0.000424                       # Average number of messages in buffer (Unspecified)
system.caches.controllers5.forwardToL0.m_stall_time   576.558811                       # Average number of cycles messages are stalled in this MB (Unspecified)
system.caches.controllers5.power_state.pwrStateResidencyTicks::UNDEFINED 105062911000                       # Cumulative time (in ticks) in various power states (Tick)
system.caches.controllers5.requestFromL0.m_buf_msgs     0.024750                       # Average number of messages in buffer (Unspecified)
system.caches.controllers5.requestFromL0.m_stall_time  9581.890254                       # Average number of cycles messages are stalled in this MB (Unspecified)
system.caches.controllers5.requestFromL0.m_stall_count        59667                       # Number of times messages were stalled (Unspecified)
system.caches.controllers5.requestToDir.m_buf_msgs     0.001367                       # Average number of messages in buffer (Unspecified)
system.caches.controllers5.requestToDir.m_stall_time   576.665033                       # Average number of cycles messages are stalled in this MB (Unspecified)
system.caches.controllers5.responseFromDirOrSibling.m_buf_msgs     0.000815                       # Average number of messages in buffer (Unspecified)
system.caches.controllers5.responseFromDirOrSibling.m_stall_time  7263.822511                       # Average number of cycles messages are stalled in this MB (Unspecified)
system.caches.controllers5.responseFromL0.m_buf_msgs     0.000071                       # Average number of messages in buffer (Unspecified)
system.caches.controllers5.responseFromL0.m_stall_time  2881.575116                       # Average number of cycles messages are stalled in this MB (Unspecified)
system.caches.controllers5.responseToDirOrSibling.m_buf_msgs     0.000064                       # Average number of messages in buffer (Unspecified)
system.caches.controllers5.responseToDirOrSibling.m_stall_time   576.096183                       # Average number of cycles messages are stalled in this MB (Unspecified)
system.caches.controllers5.responseToL0.m_buf_msgs     0.002317                       # Average number of messages in buffer (Unspecified)
system.caches.controllers5.responseToL0.m_stall_time   576.664861                       # Average number of cycles messages are stalled in this MB (Unspecified)
system.caches.controllers5.xyzStatsObject.power_state.pwrStateResidencyTicks::UNDEFINED 105062911000                       # Cumulative time (in ticks) in various power states (Tick)
system.caches.controllers6.cacheMemory.m_demand_hits            0                       # Number of cache demand hits (Unspecified)
system.caches.controllers6.cacheMemory.m_demand_misses            0                       # Number of cache demand misses (Unspecified)
system.caches.controllers6.cacheMemory.m_demand_accesses            0                       # Number of cache demand accesses (Unspecified)
system.caches.controllers6.forwardFromDir.m_buf_msgs     0.000996                       # Average number of messages in buffer (Unspecified)
system.caches.controllers6.forwardFromDir.m_stall_time  3565.643627                       # Average number of cycles messages are stalled in this MB (Unspecified)
system.caches.controllers6.forwardFromDir.m_stall_count         4810                       # Number of times messages were stalled (Unspecified)
system.caches.controllers6.forwardToL0.m_buf_msgs     0.000369                       # Average number of messages in buffer (Unspecified)
system.caches.controllers6.forwardToL0.m_stall_time   576.053685                       # Average number of cycles messages are stalled in this MB (Unspecified)
system.caches.controllers6.power_state.pwrStateResidencyTicks::UNDEFINED 105062911000                       # Cumulative time (in ticks) in various power states (Tick)
system.caches.controllers6.requestFromL0.m_buf_msgs     0.024425                       # Average number of messages in buffer (Unspecified)
system.caches.controllers6.requestFromL0.m_stall_time  9511.735269                       # Average number of cycles messages are stalled in this MB (Unspecified)
system.caches.controllers6.requestFromL0.m_stall_count        52505                       # Number of times messages were stalled (Unspecified)
system.caches.controllers6.requestToDir.m_buf_msgs     0.001201                       # Average number of messages in buffer (Unspecified)
system.caches.controllers6.requestToDir.m_stall_time   576.147248                       # Average number of cycles messages are stalled in this MB (Unspecified)
system.caches.controllers6.responseFromDirOrSibling.m_buf_msgs     0.000714                       # Average number of messages in buffer (Unspecified)
system.caches.controllers6.responseFromDirOrSibling.m_stall_time  7277.130309                       # Average number of cycles messages are stalled in this MB (Unspecified)
system.caches.controllers6.responseFromL0.m_buf_msgs     0.000057                       # Average number of messages in buffer (Unspecified)
system.caches.controllers6.responseFromL0.m_stall_time  2880.278017                       # Average number of cycles messages are stalled in this MB (Unspecified)
system.caches.controllers6.responseToDirOrSibling.m_buf_msgs     0.000053                       # Average number of messages in buffer (Unspecified)
system.caches.controllers6.responseToDirOrSibling.m_stall_time   576.028129                       # Average number of cycles messages are stalled in this MB (Unspecified)
system.caches.controllers6.responseToL0.m_buf_msgs     0.002034                       # Average number of messages in buffer (Unspecified)
system.caches.controllers6.responseToL0.m_stall_time   576.146201                       # Average number of cycles messages are stalled in this MB (Unspecified)
system.caches.controllers6.xyzStatsObject.power_state.pwrStateResidencyTicks::UNDEFINED 105062911000                       # Cumulative time (in ticks) in various power states (Tick)
system.caches.controllers7.cacheMemory.m_demand_hits            0                       # Number of cache demand hits (Unspecified)
system.caches.controllers7.cacheMemory.m_demand_misses            0                       # Number of cache demand misses (Unspecified)
system.caches.controllers7.cacheMemory.m_demand_accesses            0                       # Number of cache demand accesses (Unspecified)
system.caches.controllers7.forwardFromDir.m_buf_msgs     0.001099                       # Average number of messages in buffer (Unspecified)
system.caches.controllers7.forwardFromDir.m_stall_time  3104.870871                       # Average number of cycles messages are stalled in this MB (Unspecified)
system.caches.controllers7.forwardFromDir.m_stall_count         4172                       # Number of times messages were stalled (Unspecified)
system.caches.controllers7.forwardToL0.m_buf_msgs     0.000473                       # Average number of messages in buffer (Unspecified)
system.caches.controllers7.forwardToL0.m_stall_time   575.486948                       # Average number of cycles messages are stalled in this MB (Unspecified)
system.caches.controllers7.power_state.pwrStateResidencyTicks::UNDEFINED 105062911000                       # Cumulative time (in ticks) in various power states (Tick)
system.caches.controllers7.requestFromL0.m_buf_msgs     0.026209                       # Average number of messages in buffer (Unspecified)
system.caches.controllers7.requestFromL0.m_stall_time  9847.957478                       # Average number of cycles messages are stalled in this MB (Unspecified)
system.caches.controllers7.requestFromL0.m_stall_count        70409                       # Number of times messages were stalled (Unspecified)
system.caches.controllers7.requestToDir.m_buf_msgs     0.001590                       # Average number of messages in buffer (Unspecified)
system.caches.controllers7.requestToDir.m_stall_time   575.577989                       # Average number of cycles messages are stalled in this MB (Unspecified)
system.caches.controllers7.responseFromDirOrSibling.m_buf_msgs     0.000938                       # Average number of messages in buffer (Unspecified)
system.caches.controllers7.responseFromDirOrSibling.m_stall_time  7248.985210                       # Average number of cycles messages are stalled in this MB (Unspecified)
system.caches.controllers7.responseFromL0.m_buf_msgs     0.000056                       # Average number of messages in buffer (Unspecified)
system.caches.controllers7.responseFromL0.m_stall_time  2877.434312                       # Average number of cycles messages are stalled in this MB (Unspecified)
system.caches.controllers7.responseToDirOrSibling.m_buf_msgs     0.000051                       # Average number of messages in buffer (Unspecified)
system.caches.controllers7.responseToDirOrSibling.m_stall_time   575.475955                       # Average number of cycles messages are stalled in this MB (Unspecified)
system.caches.controllers7.responseToL0.m_buf_msgs     0.002732                       # Average number of messages in buffer (Unspecified)
system.caches.controllers7.responseToL0.m_stall_time   575.575742                       # Average number of cycles messages are stalled in this MB (Unspecified)
system.caches.controllers7.xyzStatsObject.power_state.pwrStateResidencyTicks::UNDEFINED 105062911000                       # Cumulative time (in ticks) in various power states (Tick)
system.caches.controllers8.cacheMemory.m_demand_hits            0                       # Number of cache demand hits (Unspecified)
system.caches.controllers8.cacheMemory.m_demand_misses            0                       # Number of cache demand misses (Unspecified)
system.caches.controllers8.cacheMemory.m_demand_accesses            0                       # Number of cache demand accesses (Unspecified)
system.caches.controllers8.forwardToCache.m_buf_msgs     0.003777                       # Average number of messages in buffer (Unspecified)
system.caches.controllers8.forwardToCache.m_stall_time   999.960062                       # Average number of cycles messages are stalled in this MB (Unspecified)
system.caches.controllers8.power_state.pwrStateResidencyTicks::UNDEFINED 105062911000                       # Cumulative time (in ticks) in various power states (Tick)
system.caches.controllers8.requestFromCache.m_not_avail_count       199492                       # Number of times this buffer did not have N slots available (Unspecified)
system.caches.controllers8.requestFromCache.m_buf_msgs     0.006514                       # Average number of messages in buffer (Unspecified)
system.caches.controllers8.requestFromCache.m_stall_time 87860.396330                       # Average number of cycles messages are stalled in this MB (Unspecified)
system.caches.controllers8.requestFromCache.m_occupancy     0.006514                       # Average occupancy of buffer capacity (Unspecified)
system.caches.controllers8.requestToMemory.m_buf_msgs     0.002155                       # Average number of messages in buffer (Unspecified)
system.caches.controllers8.requestToMemory.m_stall_time   999.999886                       # Average number of cycles messages are stalled in this MB (Unspecified)
system.caches.controllers8.responseFromMemory.m_buf_msgs     0.002155                       # Average number of messages in buffer (Unspecified)
system.caches.controllers8.responseFromMemory.m_stall_time   999.998924                       # Average number of cycles messages are stalled in this MB (Unspecified)
system.caches.controllers8.responseToCache.m_buf_msgs     0.032093                       # Average number of messages in buffer (Unspecified)
system.caches.controllers8.responseToCache.m_stall_time  8999.989549                       # Average number of cycles messages are stalled in this MB (Unspecified)
system.caches.controllers8.xyzCacheMemory.m_demand_hits            0                       # Number of cache demand hits (Unspecified)
system.caches.controllers8.xyzCacheMemory.m_demand_misses            0                       # Number of cache demand misses (Unspecified)
system.caches.controllers8.xyzCacheMemory.m_demand_accesses            0                       # Number of cache demand accesses (Unspecified)
system.caches.controllers8.xyzStatsObject.power_state.pwrStateResidencyTicks::UNDEFINED 105062911000                       # Cumulative time (in ticks) in various power states (Tick)
system.caches.network.msg_count.Control       4456572                       (Unspecified)
system.caches.network.msg_byte.Control       35652576                       (Unspecified)
system.caches.network.msg_count.Data          3770792                       (Unspecified)
system.caches.network.msg_byte.Data         271497024                       (Unspecified)
system.caches.network.msg_count.Response_Data       543746                       (Unspecified)
system.caches.network.msg_byte.Response_Data     39149712                       (Unspecified)
system.caches.network.int_link_buffers102.m_buf_msgs     0.000369                       # Average number of messages in buffer (Unspecified)
system.caches.network.int_link_buffers102.m_stall_time  1728.814462                       # Average number of cycles messages are stalled in this MB (Unspecified)
system.caches.network.int_link_buffers103.m_buf_msgs     0.002034                       # Average number of messages in buffer (Unspecified)
system.caches.network.int_link_buffers103.m_stall_time  1728.438545                       # Average number of cycles messages are stalled in this MB (Unspecified)
system.caches.network.int_link_buffers107.m_buf_msgs     0.000012                       # Average number of messages in buffer (Unspecified)
system.caches.network.int_link_buffers107.m_stall_time  1727.038155                       # Average number of cycles messages are stalled in this MB (Unspecified)
system.caches.network.int_link_buffers11.m_buf_msgs     0.003415                       # Average number of messages in buffer (Unspecified)
system.caches.network.int_link_buffers11.m_stall_time  2796.851669                       # Average number of cycles messages are stalled in this MB (Unspecified)
system.caches.network.int_link_buffers114.m_buf_msgs     0.000030                       # Average number of messages in buffer (Unspecified)
system.caches.network.int_link_buffers114.m_stall_time  1728.084328                       # Average number of cycles messages are stalled in this MB (Unspecified)
system.caches.network.int_link_buffers12.m_buf_msgs     0.000071                       # Average number of messages in buffer (Unspecified)
system.caches.network.int_link_buffers12.m_stall_time  1728.945127                       # Average number of cycles messages are stalled in this MB (Unspecified)
system.caches.network.int_link_buffers121.m_buf_msgs     0.000011                       # Average number of messages in buffer (Unspecified)
system.caches.network.int_link_buffers121.m_stall_time  1726.382520                       # Average number of cycles messages are stalled in this MB (Unspecified)
system.caches.network.int_link_buffers126.m_buf_msgs     0.072434                       # Average number of messages in buffer (Unspecified)
system.caches.network.int_link_buffers126.m_stall_time 32829.577861                       # Average number of cycles messages are stalled in this MB (Unspecified)
system.caches.network.int_link_buffers137.m_buf_msgs     0.000473                       # Average number of messages in buffer (Unspecified)
system.caches.network.int_link_buffers137.m_stall_time  1727.430663                       # Average number of cycles messages are stalled in this MB (Unspecified)
system.caches.network.int_link_buffers138.m_buf_msgs     0.002732                       # Average number of messages in buffer (Unspecified)
system.caches.network.int_link_buffers138.m_stall_time  1726.727170                       # Average number of cycles messages are stalled in this MB (Unspecified)
system.caches.network.int_link_buffers142.m_buf_msgs     0.000023                       # Average number of messages in buffer (Unspecified)
system.caches.network.int_link_buffers142.m_stall_time  1726.427807                       # Average number of cycles messages are stalled in this MB (Unspecified)
system.caches.network.int_link_buffers149.m_buf_msgs     0.000020                       # Average number of messages in buffer (Unspecified)
system.caches.network.int_link_buffers149.m_stall_time  1725.214990                       # Average number of cycles messages are stalled in this MB (Unspecified)
system.caches.network.int_link_buffers156.m_buf_msgs     0.000008                       # Average number of messages in buffer (Unspecified)
[...]
system.caches.controllers2.xyzStatsObjectlatency::underflows            0      0.00%      0.00% # Mem access latency (Unspecified)
system.caches.controllers2.xyzStatsObjectlatency::0-49999       213746    100.00%    100.00% # Mem access latency (Unspecified)
system.caches.controllers2.xyzStatsObjectlatency::50000-99999            0      0.00%    100.00% # Mem access latency (Unspecified)
system.caches.controllers2.xyzStatsObjectlatency::100000            0      0.00%    100.00% # Mem access latency (Unspecified)
system.caches.controllers2.xyzStatsObjectlatency::overflows            0      0.00%    100.00% # Mem access latency (Unspecified)
system.caches.controllers2.xyzStatsObjectlatency::min_value           10                       # Mem access latency (Unspecified)
system.caches.controllers2.xyzStatsObjectlatency::max_value         1050                       # Mem access latency (Unspecified)
system.caches.controllers2.xyzStatsObjectlatency::total       213746                       # Mem access latency (Unspecified)
system.caches.controllers3.xyzStatsObject.total_put            0                       # Total number of put (PutM + PutS) (Unspecified)
system.caches.controllers3.xyzStatsObject.total_put_as_wt            0                       # Total number of put as write through (Unspecified)
system.caches.controllers3.xyzStatsObject.total_putm            0                       # Total number of PutM (Unspecified)
system.caches.controllers3.xyzStatsObject.total_putm_as_wt            0                       # Total number of PutM as write through (Unspecified)
system.caches.controllers3.xyzStatsObject.total_puts            0                       # Total number of PutS (Unspecified)
system.caches.controllers3.xyzStatsObject.total_puts_as_wt            0                       # Total number of PutS as write through (Unspecified)
system.caches.controllers3.xyzStatsObject.total_repl            0                       # Total Replacement (Unspecified)
system.caches.controllers3.xyzStatsObject.total_repl_llc            0                       # Total Replacement of LLC line (Unspecified)
system.caches.controllers3.xyzStatsObject.total_repl_owned            0                       # Total Replacement of owned line (Unspecified)
system.caches.controllers3.xyzStatsObject.total_repl_shared            0                       # Total Replacement of shared line (Unspecified)
system.caches.controllers3.xyzStatsObject.wt_putRatio          nan                       # WT / Put (Unspecified)
system.caches.controllers3.xyzStatsObject.wt_putmRatio          nan                       # PutM WT / PutM (Unspecified)
system.caches.controllers3.xyzStatsObject.wt_putsRatio          nan                       # PutS WT / PutS (Unspecified)
system.caches.controllers3.xyzStatsObjectlatency::samples       287001                       # Mem access latency (Unspecified)
system.caches.controllers3.xyzStatsObjectlatency::mean    55.866743                       # Mem access latency (Unspecified)
system.caches.controllers3.xyzStatsObjectlatency::stdev   107.898899                       # Mem access latency (Unspecified)
system.caches.controllers3.xyzStatsObjectlatency::underflows            0      0.00%      0.00% # Mem access latency (Unspecified)
system.caches.controllers3.xyzStatsObjectlatency::0-49999       287001    100.00%    100.00% # Mem access latency (Unspecified)
system.caches.controllers3.xyzStatsObjectlatency::50000-99999            0      0.00%    100.00% # Mem access latency (Unspecified)
system.caches.controllers3.xyzStatsObjectlatency::100000            0      0.00%    100.00% # Mem access latency (Unspecified)
system.caches.controllers3.xyzStatsObjectlatency::overflows            0      0.00%    100.00% # Mem access latency (Unspecified)
system.caches.controllers3.xyzStatsObjectlatency::min_value           10                       # Mem access latency (Unspecified)
system.caches.controllers3.xyzStatsObjectlatency::max_value         1050                       # Mem access latency (Unspecified)
system.caches.controllers3.xyzStatsObjectlatency::total       287001                       # Mem access latency (Unspecified)
system.caches.controllers4.xyzStatsObject.total_put            0                       # Total number of put (PutM + PutS) (Unspecified)
system.caches.controllers4.xyzStatsObject.total_put_as_wt            0                       # Total number of put as write through (Unspecified)
system.caches.controllers4.xyzStatsObject.total_putm            0                       # Total number of PutM (Unspecified)
system.caches.controllers4.xyzStatsObject.total_putm_as_wt            0                       # Total number of PutM as write through (Unspecified)
system.caches.controllers4.xyzStatsObject.total_puts            0                       # Total number of PutS (Unspecified)
system.caches.controllers4.xyzStatsObject.total_puts_as_wt            0                       # Total number of PutS as write through (Unspecified)
system.caches.controllers4.xyzStatsObject.total_repl            0                       # Total Replacement (Unspecified)
system.caches.controllers4.xyzStatsObject.total_repl_llc            0                       # Total Replacement of LLC line (Unspecified)
system.caches.controllers4.xyzStatsObject.total_repl_owned            0                       # Total Replacement of owned line (Unspecified)
system.caches.controllers4.xyzStatsObject.total_repl_shared            0                       # Total Replacement of shared line (Unspecified)
system.caches.controllers4.xyzStatsObject.wt_putRatio          nan                       # WT / Put (Unspecified)
system.caches.controllers4.xyzStatsObject.wt_putmRatio          nan                       # PutM WT / PutM (Unspecified)
system.caches.controllers4.xyzStatsObject.wt_putsRatio          nan                       # PutS WT / PutS (Unspecified)
system.caches.controllers4.xyzStatsObjectlatency::samples       138151                       # Mem access latency (Unspecified)
system.caches.controllers4.xyzStatsObjectlatency::mean   157.026124                       # Mem access latency (Unspecified)
system.caches.controllers4.xyzStatsObjectlatency::stdev   133.382869                       # Mem access latency (Unspecified)
system.caches.controllers4.xyzStatsObjectlatency::underflows            0      0.00%      0.00% # Mem access latency (Unspecified)
system.caches.controllers4.xyzStatsObjectlatency::0-49999       138151    100.00%    100.00% # Mem access latency (Unspecified)
system.caches.controllers4.xyzStatsObjectlatency::50000-99999            0      0.00%    100.00% # Mem access latency (Unspecified)
system.caches.controllers4.xyzStatsObjectlatency::100000            0      0.00%    100.00% # Mem access latency (Unspecified)
system.caches.controllers4.xyzStatsObjectlatency::overflows            0      0.00%    100.00% # Mem access latency (Unspecified)
system.caches.controllers4.xyzStatsObjectlatency::min_value           15                       # Mem access latency (Unspecified)
system.caches.controllers4.xyzStatsObjectlatency::max_value          732                       # Mem access latency (Unspecified)
system.caches.controllers4.xyzStatsObjectlatency::total       138151                       # Mem access latency (Unspecified)
system.caches.controllers5.xyzStatsObject.total_put            0                       # Total number of put (PutM + PutS) (Unspecified)
system.caches.controllers5.xyzStatsObject.total_put_as_wt            0                       # Total number of put as write through (Unspecified)
system.caches.controllers5.xyzStatsObject.total_putm            0                       # Total number of PutM (Unspecified)
system.caches.controllers5.xyzStatsObject.total_putm_as_wt            0                       # Total number of PutM as write through (Unspecified)
system.caches.controllers5.xyzStatsObject.total_puts            0                       # Total number of PutS (Unspecified)
system.caches.controllers5.xyzStatsObject.total_puts_as_wt            0                       # Total number of PutS as write through (Unspecified)
system.caches.controllers5.xyzStatsObject.total_repl            0                       # Total Replacement (Unspecified)
system.caches.controllers5.xyzStatsObject.total_repl_llc            0                       # Total Replacement of LLC line (Unspecified)
system.caches.controllers5.xyzStatsObject.total_repl_owned            0                       # Total Replacement of owned line (Unspecified)
system.caches.controllers5.xyzStatsObject.total_repl_shared            0                       # Total Replacement of shared line (Unspecified)
system.caches.controllers5.xyzStatsObject.wt_putRatio          nan                       # WT / Put (Unspecified)
system.caches.controllers5.xyzStatsObject.wt_putmRatio          nan                       # PutM WT / PutM (Unspecified)
system.caches.controllers5.xyzStatsObject.wt_putsRatio          nan                       # PutS WT / PutS (Unspecified)
system.caches.controllers5.xyzStatsObjectlatency::samples        85601                       # Mem access latency (Unspecified)
system.caches.controllers5.xyzStatsObjectlatency::mean   109.544410                       # Mem access latency (Unspecified)
system.caches.controllers5.xyzStatsObjectlatency::stdev   129.226011                       # Mem access latency (Unspecified)
system.caches.controllers5.xyzStatsObjectlatency::underflows            0      0.00%      0.00% # Mem access latency (Unspecified)
system.caches.controllers5.xyzStatsObjectlatency::0-49999        85601    100.00%    100.00% # Mem access latency (Unspecified)
system.caches.controllers5.xyzStatsObjectlatency::50000-99999            0      0.00%    100.00% # Mem access latency (Unspecified)
system.caches.controllers5.xyzStatsObjectlatency::100000            0      0.00%    100.00% # Mem access latency (Unspecified)
system.caches.controllers5.xyzStatsObjectlatency::overflows            0      0.00%    100.00% # Mem access latency (Unspecified)
system.caches.controllers5.xyzStatsObjectlatency::min_value           15                       # Mem access latency (Unspecified)
system.caches.controllers5.xyzStatsObjectlatency::max_value          732                       # Mem access latency (Unspecified)
system.caches.controllers5.xyzStatsObjectlatency::total        85601                       # Mem access latency (Unspecified)
system.caches.controllers6.xyzStatsObject.total_put            0                       # Total number of put (PutM + PutS) (Unspecified)
system.caches.controllers6.xyzStatsObject.total_put_as_wt            0                       # Total number of put as write through (Unspecified)
system.caches.controllers6.xyzStatsObject.total_putm            0                       # Total number of PutM (Unspecified)
system.caches.controllers6.xyzStatsObject.total_putm_as_wt            0                       # Total number of PutM as write through (Unspecified)
system.caches.controllers6.xyzStatsObject.total_puts            0                       # Total number of PutS (Unspecified)
system.caches.controllers6.xyzStatsObject.total_puts_as_wt            0                       # Total number of PutS as write through (Unspecified)
system.caches.controllers6.xyzStatsObject.total_repl            0                       # Total Replacement (Unspecified)
system.caches.controllers6.xyzStatsObject.total_repl_llc            0                       # Total Replacement of LLC line (Unspecified)
system.caches.controllers6.xyzStatsObject.total_repl_owned            0                       # Total Replacement of owned line (Unspecified)
system.caches.controllers6.xyzStatsObject.total_repl_shared            0                       # Total Replacement of shared line (Unspecified)
system.caches.controllers6.xyzStatsObject.wt_putRatio          nan                       # WT / Put (Unspecified)
system.caches.controllers6.xyzStatsObject.wt_putmRatio          nan                       # PutM WT / PutM (Unspecified)
system.caches.controllers6.xyzStatsObject.wt_putsRatio          nan                       # PutS WT / PutS (Unspecified)
system.caches.controllers6.xyzStatsObjectlatency::samples        75041                       # Mem access latency (Unspecified)
system.caches.controllers6.xyzStatsObjectlatency::mean   113.269453                       # Mem access latency (Unspecified)
system.caches.controllers6.xyzStatsObjectlatency::stdev   131.895438                       # Mem access latency (Unspecified)
system.caches.controllers6.xyzStatsObjectlatency::underflows            0      0.00%      0.00% # Mem access latency (Unspecified)
system.caches.controllers6.xyzStatsObjectlatency::0-49999        75041    100.00%    100.00% # Mem access latency (Unspecified)
system.caches.controllers6.xyzStatsObjectlatency::50000-99999            0      0.00%    100.00% # Mem access latency (Unspecified)
system.caches.controllers6.xyzStatsObjectlatency::100000            0      0.00%    100.00% # Mem access latency (Unspecified)
system.caches.controllers6.xyzStatsObjectlatency::overflows            0      0.00%    100.00% # Mem access latency (Unspecified)
system.caches.controllers6.xyzStatsObjectlatency::min_value           15                       # Mem access latency (Unspecified)
system.caches.controllers6.xyzStatsObjectlatency::max_value          732                       # Mem access latency (Unspecified)
system.caches.controllers6.xyzStatsObjectlatency::total        75041                       # Mem access latency (Unspecified)
system.caches.controllers7.xyzStatsObject.total_put            0                       # Total number of put (PutM + PutS) (Unspecified)
system.caches.controllers7.xyzStatsObject.total_put_as_wt            0                       # Total number of put as write through (Unspecified)
system.caches.controllers7.xyzStatsObject.total_putm            0                       # Total number of PutM (Unspecified)
system.caches.controllers7.xyzStatsObject.total_putm_as_wt            0                       # Total number of PutM as write through (Unspecified)
system.caches.controllers7.xyzStatsObject.total_puts            0                       # Total number of PutS (Unspecified)
system.caches.controllers7.xyzStatsObject.total_puts_as_wt            0                       # Total number of PutS as write through (Unspecified)
system.caches.controllers7.xyzStatsObject.total_repl            0                       # Total Replacement (Unspecified)
system.caches.controllers7.xyzStatsObject.total_repl_llc            0                       # Total Replacement of LLC line (Unspecified)
system.caches.controllers7.xyzStatsObject.total_repl_owned            0                       # Total Replacement of owned line (Unspecified)
system.caches.controllers7.xyzStatsObject.total_repl_shared            0                       # Total Replacement of shared line (Unspecified)
system.caches.controllers7.xyzStatsObject.wt_putRatio          nan                       # WT / Put (Unspecified)
system.caches.controllers7.xyzStatsObject.wt_putmRatio          nan                       # PutM WT / PutM (Unspecified)
system.caches.controllers7.xyzStatsObject.wt_putsRatio          nan                       # PutS WT / PutS (Unspecified)
system.caches.controllers7.xyzStatsObjectlatency::samples        98522                       # Mem access latency (Unspecified)
system.caches.controllers7.xyzStatsObjectlatency::mean   104.373653                       # Mem access latency (Unspecified)
system.caches.controllers7.xyzStatsObjectlatency::stdev   125.805410                       # Mem access latency (Unspecified)
system.caches.controllers7.xyzStatsObjectlatency::underflows            0      0.00%      0.00% # Mem access latency (Unspecified)
system.caches.controllers7.xyzStatsObjectlatency::0-49999        98522    100.00%    100.00% # Mem access latency (Unspecified)
system.caches.controllers7.xyzStatsObjectlatency::50000-99999            0      0.00%    100.00% # Mem access latency (Unspecified)
system.caches.controllers7.xyzStatsObjectlatency::100000            0      0.00%    100.00% # Mem access latency (Unspecified)
system.caches.controllers7.xyzStatsObjectlatency::overflows            0      0.00%    100.00% # Mem access latency (Unspecified)
system.caches.controllers7.xyzStatsObjectlatency::min_value           15                       # Mem access latency (Unspecified)
system.caches.controllers7.xyzStatsObjectlatency::max_value          732                       # Mem access latency (Unspecified)
system.caches.controllers7.xyzStatsObjectlatency::total        98522                       # Mem access latency (Unspecified)
system.caches.controllers8.xyzStatsObject.total_put       307685                       # Total number of put (PutM + PutS) (Unspecified)
system.caches.controllers8.xyzStatsObject.total_put_as_wt       123691                       # Total number of put as write through (Unspecified)
system.caches.controllers8.xyzStatsObject.total_putm        99746                       # Total number of PutM (Unspecified)
system.caches.controllers8.xyzStatsObject.total_putm_as_wt        43478                       # Total number of PutM as write through (Unspecified)
system.caches.controllers8.xyzStatsObject.total_puts       207939                       # Total number of PutS (Unspecified)
system.caches.controllers8.xyzStatsObject.total_puts_as_wt        80213                       # Total number of PutS as write through (Unspecified)
system.caches.controllers8.xyzStatsObject.total_repl            0                       # Total Replacement (Unspecified)
system.caches.controllers8.xyzStatsObject.total_repl_llc            0                       # Total Replacement of LLC line (Unspecified)
system.caches.controllers8.xyzStatsObject.total_repl_owned            0                       # Total Replacement of owned line (Unspecified)
system.caches.controllers8.xyzStatsObject.total_repl_shared            0                       # Total Replacement of shared line (Unspecified)
system.caches.controllers8.xyzStatsObject.wt_putRatio     0.402005                       # WT / Put (Unspecified)
system.caches.controllers8.xyzStatsObject.wt_putmRatio     0.435887                       # PutM WT / PutM (Unspecified)
system.caches.controllers8.xyzStatsObject.wt_putsRatio     0.385753                       # PutS WT / PutS (Unspecified)
system.caches.controllers8.xyzStatsObjectlatency::samples            0                       # Mem access latency (Unspecified)
system.caches.controllers8.xyzStatsObjectlatency::mean          nan                       # Mem access latency (Unspecified)
system.caches.controllers8.xyzStatsObjectlatency::stdev          nan                       # Mem access latency (Unspecified)
system.caches.controllers8.xyzStatsObjectlatency::underflows            0                       # Mem access latency (Unspecified)
system.caches.controllers8.xyzStatsObjectlatency::0-49999            0                       # Mem access latency (Unspecified)
system.caches.controllers8.xyzStatsObjectlatency::50000-99999            0                       # Mem access latency (Unspecified)
system.caches.controllers8.xyzStatsObjectlatency::100000            0                       # Mem access latency (Unspecified)
system.caches.controllers8.xyzStatsObjectlatency::overflows            0                       # Mem access latency (Unspecified)
system.caches.controllers8.xyzStatsObjectlatency::min_value            0                       # Mem access latency (Unspecified)
system.caches.controllers8.xyzStatsObjectlatency::max_value            0                       # Mem access latency (Unspecified)
system.caches.controllers8.xyzStatsObjectlatency::total            0                       # Mem access latency (Unspecified)

---------- End Simulation Statistics   ----------
