
---------- Begin Simulation Statistics ----------
simSeconds                                   0.105361                       # Number of seconds simulated (Second)
simTicks                                 105361151000                       # Number of ticks simulated (Tick)
finalTick                                105361151000                       # Number of ticks from beginning of simulation (restored from checkpoints and never reset) (Tick)
simFreq                                  1000000000000                       # The number of ticks per simulated second ((Tick/Second))
hostSeconds                                     63.23                       # Real time elapsed on the host (Second)
hostTickRate                               1666145519                       # The number of ticks simulated per host second (ticks/s) ((Tick/Second))
hostMemory                                    4934136                       # Number of bytes of host memory used (Byte)
simInsts                                     59409657                       # Number of instructions simulated (Count)
simOps                                      116672020                       # Number of ops (including micro ops) simulated (Count)
hostInstRate                                   939472                       # Simulator instruction rate (inst/s) ((Count/Second))
hostOpRate                                    1844983                       # Simulator op (including micro ops) rate (op/s) ((Count/Second))
system.caches.m_outstandReqHistSeqr::bucket_size            1                       (Unspecified)
system.caches.m_outstandReqHistSeqr::max_bucket            9                       (Unspecified)
system.caches.m_outstandReqHistSeqr::samples     90488058                       (Unspecified)
system.caches.m_outstandReqHistSeqr::mean            1                       (Unspecified)
system.caches.m_outstandReqHistSeqr::gmean            1                       (Unspecified)
system.caches.m_outstandReqHistSeqr      |           0      0.00%      0.00% |    90488058    100.00%    100.00% |           0      0.00%    100.00% |           0      0.00%    100.00% |           0      0.00%    100.00% |           0      0.00%    100.00% |           0      0.00%    100.00% |           0      0.00%    100.00% |           0      0.00%    100.00% |           0      0.00%    100.00% (Unspecified)
system.caches.m_outstandReqHistSeqr::total     90488058                       (Unspecified)
system.caches.m_latencyHistSeqr::bucket_size          128                       (Unspecified)
system.caches.m_latencyHistSeqr::max_bucket         1279                       (Unspecified)
system.caches.m_latencyHistSeqr::samples     90488058                       (Unspecified)
system.caches.m_latencyHistSeqr::mean        1.819827                       (Unspecified)
system.caches.m_latencyHistSeqr::gmean       1.041597                       (Unspecified)
system.caches.m_latencyHistSeqr::stdev      15.155995                       (Unspecified)
system.caches.m_latencyHistSeqr          |    90290274     99.78%     99.78% |       89822      0.10%     99.88% |       70873      0.08%     99.96% |       22308      0.02%     99.98% |       10206      0.01%     99.99% |        3537      0.00%    100.00% |         881      0.00%    100.00% |         141      0.00%    100.00% |          16      0.00%    100.00% |           0      0.00%    100.00% (Unspecified)
system.caches.m_latencyHistSeqr::total       90488058                       (Unspecified)
system.caches.m_hitLatencyHistSeqr::bucket_size            1                       (Unspecified)
system.caches.m_hitLatencyHistSeqr::max_bucket            9                       (Unspecified)
system.caches.m_hitLatencyHistSeqr::samples     89367817                       (Unspecified)
system.caches.m_hitLatencyHistSeqr::mean            1                       (Unspecified)
system.caches.m_hitLatencyHistSeqr::gmean            1                       (Unspecified)
system.caches.m_hitLatencyHistSeqr       |           0      0.00%      0.00% |    89367817    100.00%    100.00% |           0      0.00%    100.00% |           0      0.00%    100.00% |           0      0.00%    100.00% |           0      0.00%    100.00% |           0      0.00%    100.00% |           0      0.00%    100.00% |           0      0.00%    100.00% |           0      0.00%    100.00% (Unspecified)
system.caches.m_hitLatencyHistSeqr::total     89367817                       (Unspecified)
system.caches.m_missLatencyHistSeqr::bucket_size          128                       (Unspecified)
system.caches.m_missLatencyHistSeqr::max_bucket         1279                       (Unspecified)
system.caches.m_missLatencyHistSeqr::samples      1120241                       (Unspecified)
system.caches.m_missLatencyHistSeqr::mean    67.221936                       (Unspecified)
system.caches.m_missLatencyHistSeqr::gmean    26.897309                       (Unspecified)
system.caches.m_missLatencyHistSeqr::stdev   119.262043                       (Unspecified)
system.caches.m_missLatencyHistSeqr      |      922457     82.34%     82.34% |       89822      8.02%     90.36% |       70873      6.33%     96.69% |       22308      1.99%     98.68% |       10206      0.91%     99.59% |        3537      0.32%     99.91% |         881      0.08%     99.99% |         141      0.01%    100.00% |          16      0.00%    100.00% |           0      0.00%    100.00% (Unspecified)
system.caches.m_missLatencyHistSeqr::total      1120241                       (Unspecified)
system.caches.L0Cache_Controller.Load    |     5137319     37.46%     37.46% |     2803693     20.44%     57.90% |     2464403     17.97%     75.87% |     3310217     24.13%    100.00% (Unspecified)
system.caches.L0Cache_Controller.Load::total     13715632                       (Unspecified)
system.caches.L0Cache_Controller.Ifetch  |    27917881     39.66%     39.66% |    13887868     19.73%     59.39% |    12209911     17.35%     76.73% |    16378737     23.27%    100.00% (Unspecified)
system.caches.L0Cache_Controller.Ifetch::total     70394397                       (Unspecified)
system.caches.L0Cache_Controller.Store   |     2219263     34.80%     34.80% |     1359556     21.32%     56.11% |     1195287     18.74%     74.85% |     1603923     25.15%    100.00% (Unspecified)
system.caches.L0Cache_Controller.Store::total      6378029                       (Unspecified)
system.caches.L0Cache_Controller.Replacement |      322100     33.99%     33.99% |      203690     21.49%     55.48% |      179014     18.89%     74.37% |      242908     25.63%    100.00% (Unspecified)
system.caches.L0Cache_Controller.Replacement::total       947712                       (Unspecified)
system.caches.L0Cache_Controller.Inv     |       83247     38.32%     38.32% |       44866     20.65%     58.97% |       39709     18.28%     77.24% |       49443     22.76%    100.00% (Unspecified)
system.caches.L0Cache_Controller.Inv::total       217265                       (Unspecified)
system.caches.L0Cache_Controller.Data    |      260199     37.43%     37.43% |      141887     20.41%     57.83% |      125072     17.99%     75.82% |      168096     24.18%    100.00% (Unspecified)
system.caches.L0Cache_Controller.Data::total       695254                       (Unspecified)
system.caches.L0Cache_Controller.ExData  |      114938     27.05%     27.05% |      101996     24.00%     51.04% |       89447     21.05%     72.09% |      118606     27.91%    100.00% (Unspecified)
system.caches.L0Cache_Controller.ExData::total       424987                       (Unspecified)
system.caches.L0Cache_Controller.I.Load  |      302065     31.40%     31.40% |      215959     22.45%     53.86% |      189578     19.71%     73.57% |      254269     26.43%    100.00% (Unspecified)
system.caches.L0Cache_Controller.I.Load::total       961871                       (Unspecified)
system.caches.L0Cache_Controller.I.Ifetch |       19353     48.18%     48.18% |        6821     16.98%     65.15% |        6307     15.70%     80.85% |        7691     19.15%    100.00% (Unspecified)
system.caches.L0Cache_Controller.I.Ifetch::total        40172                       (Unspecified)
system.caches.L0Cache_Controller.I.Store |       30208     96.81%     96.81% |         336      1.08%     97.88% |         369      1.18%     99.07% |         291      0.93%    100.00% (Unspecified)
system.caches.L0Cache_Controller.I.Store::total        31204                       (Unspecified)
system.caches.L0Cache_Controller.I.Inv   |       53781     40.75%     40.75% |       25498     19.32%     60.08% |       22526     17.07%     77.15% |       30159     22.85%    100.00% (Unspecified)
system.caches.L0Cache_Controller.I.Inv::total       131964                       (Unspecified)
system.caches.L0Cache_Controller.IS_D.Data |      206480     35.78%     35.78% |      120784     20.93%     56.71% |      106438     18.45%     75.16% |      143354     24.84%    100.00% (Unspecified)
system.caches.L0Cache_Controller.IS_D.Data::total       577056                       (Unspecified)
system.caches.L0Cache_Controller.IS_D.ExData |      114938     27.05%     27.05% |      101996     24.00%     51.04% |       89447     21.05%     72.09% |      118606     27.91%    100.00% (Unspecified)
system.caches.L0Cache_Controller.IS_D.ExData::total       424987                       (Unspecified)
system.caches.L0Cache_Controller.IM_D.Inv |           0      0.00%      0.00% |           0      0.00%      0.00% |           1    100.00%    100.00% |           0      0.00%    100.00% (Unspecified)
system.caches.L0Cache_Controller.IM_D.Inv::total            1                       (Unspecified)
system.caches.L0Cache_Controller.IM_D.Data |       53719     45.45%     45.45% |       21103     17.85%     63.30% |       18634     15.77%     79.07% |       24742     20.93%    100.00% (Unspecified)
system.caches.L0Cache_Controller.IM_D.Data::total       118198                       (Unspecified)
system.caches.L0Cache_Controller.S.Load  |     2350972     37.65%     37.65% |     1273377     20.39%     58.04% |     1117507     17.89%     75.93% |     1503246     24.07%    100.00% (Unspecified)
system.caches.L0Cache_Controller.S.Load::total      6245102                       (Unspecified)
system.caches.L0Cache_Controller.S.Ifetch |    27898528     39.65%     39.65% |    13881047     19.73%     59.38% |    12203604     17.35%     76.73% |    16371046     23.27%    100.00% (Unspecified)
system.caches.L0Cache_Controller.S.Ifetch::total     70354225                       (Unspecified)
system.caches.L0Cache_Controller.S.Store |       23511     27.03%     27.03% |       20767     23.87%     50.90% |       18265     21.00%     71.89% |       24451     28.11%    100.00% (Unspecified)
system.caches.L0Cache_Controller.S.Store::total        86994                       (Unspecified)
system.caches.L0Cache_Controller.S.Replacement |      163087     37.54%     37.54% |       88337     20.33%     57.87% |       77850     17.92%     75.80% |      105152     24.20%    100.00% (Unspecified)
system.caches.L0Cache_Controller.S.Replacement::total       434426                       (Unspecified)
system.caches.L0Cache_Controller.S.Inv   |       19835     35.76%     35.76% |       11638     20.98%     56.75% |       10281     18.54%     75.28% |       13708     24.72%    100.00% (Unspecified)
system.caches.L0Cache_Controller.S.Inv::total        55462                       (Unspecified)
system.caches.L0Cache_Controller.M.Load  |     2484282     38.17%     38.17% |     1314357     20.19%     58.36% |     1157318     17.78%     76.14% |     1552702     23.86%    100.00% (Unspecified)
system.caches.L0Cache_Controller.M.Load::total      6508659                       (Unspecified)
system.caches.L0Cache_Controller.M.Store |     2165544     34.59%     34.59% |     1338453     21.38%     55.98% |     1176653     18.80%     74.77% |     1579181     25.23%    100.00% (Unspecified)
system.caches.L0Cache_Controller.M.Store::total      6259831                       (Unspecified)
system.caches.L0Cache_Controller.M.Replacement |      159013     30.98%     30.98% |      115353     22.47%     53.45% |      101164     19.71%     73.16% |      137756     26.84%    100.00% (Unspecified)
system.caches.L0Cache_Controller.M.Replacement::total       513286                       (Unspecified)
system.caches.L0Cache_Controller.M.Inv   |        9631     32.28%     32.28% |        7730     25.91%     58.18% |        6901     23.13%     81.31% |        5576     18.69%    100.00% (Unspecified)
system.caches.L0Cache_Controller.M.Inv::total        29838                       (Unspecified)
system.caches.L1Cache_Controller.Load    |      321418     32.08%     32.08% |      222780     22.23%     54.31% |      195885     19.55%     73.86% |      261960     26.14%    100.00% (Unspecified)
system.caches.L1Cache_Controller.Load::total      1002043                       (Unspecified)
system.caches.L1Cache_Controller.Store   |       53719     45.45%     45.45% |       21103     17.85%     63.30% |       18634     15.77%     79.07% |       24742     20.93%    100.00% (Unspecified)
system.caches.L1Cache_Controller.Store::total       118198                       (Unspecified)
system.caches.L1Cache_Controller.PutM    |      159013     30.98%     30.98% |      115353     22.47%     53.45% |      101164     19.71%     73.16% |      137756     26.84%    100.00% (Unspecified)
system.caches.L1Cache_Controller.PutM::total       513286                       (Unspecified)
system.caches.L1Cache_Controller.Replacement |      228021     38.45%     38.45% |      119302     20.12%     58.57% |      104925     17.69%     76.27% |      140720     23.73%    100.00% (Unspecified)
system.caches.L1Cache_Controller.Replacement::total       592968                       (Unspecified)
system.caches.L1Cache_Controller.FwdGetM |       11059     24.33%     24.33% |       13432     29.55%     53.88% |       12000     26.40%     80.28% |        8965     19.72%    100.00% (Unspecified)
system.caches.L1Cache_Controller.FwdGetM::total        45456                       (Unspecified)
system.caches.L1Cache_Controller.Inv     |           4     15.38%     15.38% |           8     30.77%     46.15% |           8     30.77%     76.92% |           6     23.08%    100.00% (Unspecified)
system.caches.L1Cache_Controller.Inv::total           26                       (Unspecified)
system.caches.L1Cache_Controller.PutAck  |      109387     38.10%     38.10% |       58065     20.22%     58.32% |       51112     17.80%     76.12% |       68554     23.88%    100.00% (Unspecified)
system.caches.L1Cache_Controller.PutAck::total       287118                       (Unspecified)
system.caches.L1Cache_Controller.DataDirNoAcks |      133213     35.55%     35.55% |       78933     21.06%     56.61% |       69571     18.57%     75.18% |       93008     24.82%    100.00% (Unspecified)
system.caches.L1Cache_Controller.DataDirNoAcks::total       374725                       (Unspecified)
system.caches.L1Cache_Controller.DataOwner |        5741     23.69%     23.69% |        7112     29.35%     53.04% |        6188     25.53%     78.57% |        5193     21.43%    100.00% (Unspecified)
system.caches.L1Cache_Controller.DataOwner::total        24234                       (Unspecified)
system.caches.L1Cache_Controller.InvAck  |          18     69.23%     69.23% |           3     11.54%     80.77% |           4     15.38%     96.15% |           1      3.85%    100.00% (Unspecified)
system.caches.L1Cache_Controller.InvAck::total           26                       (Unspecified)
system.caches.L1Cache_Controller.WB_Data |        9631     32.28%     32.28% |        7730     25.91%     58.18% |        6901     23.13%     81.31% |        5576     18.69%    100.00% (Unspecified)
system.caches.L1Cache_Controller.WB_Data::total        29838                       (Unspecified)
system.caches.L1Cache_Controller.I.Load  |      102890     34.46%     34.46% |       64979     21.77%     56.23% |       57180     19.15%     75.38% |       73487     24.62%    100.00% (Unspecified)
system.caches.L1Cache_Controller.I.Load::total       298536                       (Unspecified)
system.caches.L1Cache_Controller.I.Store |       12466     93.54%     93.54% |         294      2.21%     95.75% |         310      2.33%     98.07% |         257      1.93%    100.00% (Unspecified)
system.caches.L1Cache_Controller.I.Store::total        13327                       (Unspecified)
system.caches.L1Cache_Controller.IS_D.FwdGetM |         113     28.32%     28.32% |         125     31.33%     59.65% |         108     27.07%     86.72% |          53     13.28%    100.00% (Unspecified)
system.caches.L1Cache_Controller.IS_D.FwdGetM::total          399                       (Unspecified)
system.caches.L1Cache_Controller.IS_D.DataDirNoAcks |       97314     35.40%     35.40% |       58002     21.10%     56.50% |       51168     18.61%     75.11% |       68420     24.89%    100.00% (Unspecified)
system.caches.L1Cache_Controller.IS_D.DataDirNoAcks::total       274904                       (Unspecified)
system.caches.L1Cache_Controller.IS_D.DataOwner |        5576     23.60%     23.60% |        6977     29.52%     53.12% |        6012     25.44%     78.56% |        5067     21.44%    100.00% (Unspecified)
system.caches.L1Cache_Controller.IS_D.DataOwner::total        23632                       (Unspecified)
system.caches.L1Cache_Controller.IM_AD.FwdGetM |          10     41.67%     41.67% |           3     12.50%     54.17% |           4     16.67%     70.83% |           7     29.17%    100.00% (Unspecified)
system.caches.L1Cache_Controller.IM_AD.FwdGetM::total           24                       (Unspecified)
system.caches.L1Cache_Controller.IM_AD.DataDirNoAcks |       12301     96.67%     96.67% |         159      1.25%     97.92% |         134      1.05%     98.97% |         131      1.03%    100.00% (Unspecified)
system.caches.L1Cache_Controller.IM_AD.DataDirNoAcks::total        12725                       (Unspecified)
system.caches.L1Cache_Controller.IM_AD.DataOwner |         165     27.41%     27.41% |         135     22.43%     49.83% |         176     29.24%     79.07% |         126     20.93%    100.00% (Unspecified)
system.caches.L1Cache_Controller.IM_AD.DataOwner::total          602                       (Unspecified)
system.caches.L1Cache_Controller.IM_AD.InvAck |          13     86.67%     86.67% |           1      6.67%     93.33% |           1      6.67%    100.00% |           0      0.00%    100.00% (Unspecified)
system.caches.L1Cache_Controller.IM_AD.InvAck::total           15                       (Unspecified)
system.caches.L1Cache_Controller.S.Load  |      109166     36.13%     36.13% |       62782     20.78%     56.91% |       55270     18.29%     75.20% |       74934     24.80%    100.00% (Unspecified)
system.caches.L1Cache_Controller.S.Load::total       302152                       (Unspecified)
system.caches.L1Cache_Controller.S.Store |       23598     27.09%     27.09% |       20772     23.85%     50.94% |       18269     20.98%     71.92% |       24457     28.08%    100.00% (Unspecified)
system.caches.L1Cache_Controller.S.Store::total        87096                       (Unspecified)
system.caches.L1Cache_Controller.S.Replacement |       73606     39.28%     39.28% |       37125     19.81%     59.09% |       32795     17.50%     76.59% |       43859     23.41%    100.00% (Unspecified)
system.caches.L1Cache_Controller.S.Replacement::total       187385                       (Unspecified)
system.caches.L1Cache_Controller.S.Inv   |           4     15.38%     15.38% |           8     30.77%     46.15% |           8     30.77%     76.92% |           6     23.08%    100.00% (Unspecified)
system.caches.L1Cache_Controller.S.Inv::total           26                       (Unspecified)
system.caches.L1Cache_Controller.SM_AD.DataDirNoAcks |       23598     27.09%     27.09% |       20772     23.85%     50.94% |       18269     20.98%     71.92% |       24457     28.08%    100.00% (Unspecified)
system.caches.L1Cache_Controller.SM_AD.DataDirNoAcks::total        87096                       (Unspecified)
system.caches.L1Cache_Controller.SM_AD.InvAck |           5     45.45%     45.45% |           2     18.18%     63.64% |           3     27.27%     90.91% |           1      9.09%    100.00% (Unspecified)
system.caches.L1Cache_Controller.SM_AD.InvAck::total           11                       (Unspecified)
system.caches.L1Cache_Controller.M.Load  |      109362     27.25%     27.25% |       95019     23.67%     50.92% |       83435     20.79%     71.71% |      113539     28.29%    100.00% (Unspecified)
system.caches.L1Cache_Controller.M.Load::total       401355                       (Unspecified)
system.caches.L1Cache_Controller.M.Store |       17655     99.32%     99.32% |          37      0.21%     99.53% |          55      0.31%     99.84% |          28      0.16%    100.00% (Unspecified)
system.caches.L1Cache_Controller.M.Store::total        17775                       (Unspecified)
system.caches.L1Cache_Controller.M.Replacement |       35781     35.88%     35.88% |       20940     21.00%     56.87% |       18317     18.37%     75.24% |       24695     24.76%    100.00% (Unspecified)
system.caches.L1Cache_Controller.M.Replacement::total        99733                       (Unspecified)
system.caches.L1Cache_Controller.M.FwdGetM |        5837     24.09%     24.09% |        7081     29.22%     53.31% |        6251     25.80%     79.10% |        5064     20.90%    100.00% (Unspecified)
system.caches.L1Cache_Controller.M.FwdGetM::total        24233                       (Unspecified)
system.caches.L1Cache_Controller.M_P.PutM |      159007     30.98%     30.98% |      115350     22.47%     53.45% |      101160     19.71%     73.16% |      137754     26.84%    100.00% (Unspecified)
system.caches.L1Cache_Controller.M_P.PutM::total       513271                       (Unspecified)
system.caches.L1Cache_Controller.M_P.Replacement |        4562     49.98%     49.98% |        1525     16.71%     66.68% |        1284     14.07%     80.75% |        1757     19.25%    100.00% (Unspecified)
system.caches.L1Cache_Controller.M_P.Replacement::total         9128                       (Unspecified)
system.caches.L1Cache_Controller.M_P.FwdGetM |        5075     24.49%     24.49% |        6208     29.95%     54.44% |        5621     27.12%     81.56% |        3821     18.44%    100.00% (Unspecified)
system.caches.L1Cache_Controller.M_P.FwdGetM::total        20725                       (Unspecified)
system.caches.L1Cache_Controller.MP_D.PutM |           6     40.00%     40.00% |           3     20.00%     60.00% |           4     26.67%     86.67% |           2     13.33%    100.00% (Unspecified)
system.caches.L1Cache_Controller.MP_D.PutM::total           15                       (Unspecified)
system.caches.L1Cache_Controller.MP_D.Replacement |        4563     49.96%     49.96% |        1525     16.70%     66.66% |        1288     14.10%     80.76% |        1757     19.24%    100.00% (Unspecified)
system.caches.L1Cache_Controller.MP_D.Replacement::total         9133                       (Unspecified)
system.caches.L1Cache_Controller.MP_D.FwdGetM |          23     31.08%     31.08% |          15     20.27%     51.35% |          16     21.62%     72.97% |          20     27.03%    100.00% (Unspecified)
system.caches.L1Cache_Controller.MP_D.FwdGetM::total           74                       (Unspecified)
system.caches.L1Cache_Controller.MP_D.WB_Data |        9631     32.28%     32.28% |        7730     25.91%     58.18% |        6901     23.13%     81.31% |        5576     18.69%    100.00% (Unspecified)
system.caches.L1Cache_Controller.MP_D.WB_Data::total        29838                       (Unspecified)
system.caches.L1Cache_Controller.MI_A.Replacement |       35823     35.86%     35.86% |       20984     21.00%     56.86% |       18364     18.38%     75.24% |       24737     24.76%    100.00% (Unspecified)
system.caches.L1Cache_Controller.MI_A.Replacement::total        99908                       (Unspecified)
system.caches.L1Cache_Controller.MI_A.FwdGetM |           1    100.00%    100.00% |           0      0.00%    100.00% |           0      0.00%    100.00% |           0      0.00%    100.00% (Unspecified)
system.caches.L1Cache_Controller.MI_A.FwdGetM::total            1                       (Unspecified)
system.caches.L1Cache_Controller.MI_A.PutAck |       35780     35.88%     35.88% |       20940     21.00%     56.87% |       18317     18.37%     75.24% |       24695     24.76%    100.00% (Unspecified)
system.caches.L1Cache_Controller.MI_A.PutAck::total        99732                       (Unspecified)
system.caches.L1Cache_Controller.SI_A.Replacement |       73686     39.26%     39.26% |       37203     19.82%     59.08% |       32877     17.52%     76.60% |       43915     23.40%    100.00% (Unspecified)
system.caches.L1Cache_Controller.SI_A.Replacement::total       187681                       (Unspecified)
system.caches.L1Cache_Controller.SI_A.PutAck |       73606     39.28%     39.28% |       37125     19.81%     59.09% |       32795     17.50%     76.59% |       43859     23.41%    100.00% (Unspecified)
system.caches.L1Cache_Controller.SI_A.PutAck::total       187385                       (Unspecified)
system.caches.L1Cache_Controller.II_A.PutAck |           1    100.00%    100.00% |           0      0.00%    100.00% |           0      0.00%    100.00% |           0      0.00%    100.00% (Unspecified)
system.caches.L1Cache_Controller.II_A.PutAck::total            1                       (Unspecified)
system.caches.Directory_Controller.GetS        298536      0.00%      0.00% (Unspecified)
system.caches.Directory_Controller.GetM        100423      0.00%      0.00% (Unspecified)
system.caches.Directory_Controller.PutSNotLast        74064      0.00%      0.00% (Unspecified)
system.caches.Directory_Controller.PutSLast        53079      0.00%      0.00% (Unspecified)
system.caches.Directory_Controller.PutSLastWT        60242      0.00%      0.00% (Unspecified)
system.caches.Directory_Controller.PutMOwner        56022      0.00%      0.00% (Unspecified)
system.caches.Directory_Controller.PutMOwnerWT        43710      0.00%      0.00% (Unspecified)
system.caches.Directory_Controller.PutMNonOwner            1      0.00%      0.00% (Unspecified)
system.caches.Directory_Controller.Sync         20649      0.00%      0.00% (Unspecified)
system.caches.Directory_Controller.MemData       103372      0.00%      0.00% (Unspecified)
system.caches.Directory_Controller.LastMemAck       124601      0.00%      0.00% (Unspecified)
system.caches.Directory_Controller.I.GetS        92097      0.00%      0.00% (Unspecified)
system.caches.Directory_Controller.I.GetM        11275      0.00%      0.00% (Unspecified)
system.caches.Directory_Controller.S.GetS        74265      0.00%      0.00% (Unspecified)
system.caches.Directory_Controller.S.GetM        87105      0.00%      0.00% (Unspecified)
system.caches.Directory_Controller.S.PutSNotLast        74064      0.00%      0.00% (Unspecified)
system.caches.Directory_Controller.S.PutSLast        53079      0.00%      0.00% (Unspecified)
system.caches.Directory_Controller.S.PutSLastWT        60242      0.00%      0.00% (Unspecified)
system.caches.Directory_Controller.M.GetS        23632      0.00%      0.00% (Unspecified)
system.caches.Directory_Controller.M.GetM          602      0.00%      0.00% (Unspecified)
system.caches.Directory_Controller.M.PutMOwner        56022      0.00%      0.00% (Unspecified)
system.caches.Directory_Controller.M.PutMOwnerWT        43710      0.00%      0.00% (Unspecified)
system.caches.Directory_Controller.M.PutMNonOwner            1      0.00%      0.00% (Unspecified)
system.caches.Directory_Controller.LLCOnly.GetS       108542      0.00%      0.00% (Unspecified)
system.caches.Directory_Controller.LLCOnly.GetM         1441      0.00%      0.00% (Unspecified)
system.caches.Directory_Controller.LLCOnly.Sync        20649      0.00%      0.00% (Unspecified)
system.caches.Directory_Controller.LLCOnly_m.LastMemAck        80891      0.00%      0.00% (Unspecified)
system.caches.Directory_Controller.S_m.MemData        92097      0.00%      0.00% (Unspecified)
system.caches.Directory_Controller.M_m.MemData        11275      0.00%      0.00% (Unspecified)
system.caches.Directory_Controller.MI_m.LastMemAck        43710      0.00%      0.00% (Unspecified)
system.caches.RequestType.LD.latency_hist_seqr::bucket_size          128                       (Unspecified)
system.caches.RequestType.LD.latency_hist_seqr::max_bucket         1279                       (Unspecified)
system.caches.RequestType.LD.latency_hist_seqr::samples     13715632                       (Unspecified)
system.caches.RequestType.LD.latency_hist_seqr::mean     5.273991                       (Unspecified)
system.caches.RequestType.LD.latency_hist_seqr::gmean     1.250014                       (Unspecified)
system.caches.RequestType.LD.latency_hist_seqr::stdev    34.954204                       (Unspecified)
system.caches.RequestType.LD.latency_hist_seqr |    13564726     98.90%     98.90% |       64364      0.47%     99.37% |       52643      0.38%     99.75% |       20193      0.15%     99.90% |        9449      0.07%     99.97% |        3261      0.02%     99.99% |         845      0.01%    100.00% |         135      0.00%    100.00% |          16      0.00%    100.00% |           0      0.00%    100.00% (Unspecified)
system.caches.RequestType.LD.latency_hist_seqr::total     13715632                       (Unspecified)
system.caches.RequestType.LD.hit_latency_hist_seqr::bucket_size            1                       (Unspecified)
system.caches.RequestType.LD.hit_latency_hist_seqr::max_bucket            9                       (Unspecified)
system.caches.RequestType.LD.hit_latency_hist_seqr::samples     12753761                       (Unspecified)
system.caches.RequestType.LD.hit_latency_hist_seqr::mean            1                       (Unspecified)
system.caches.RequestType.LD.hit_latency_hist_seqr::gmean            1                       (Unspecified)
system.caches.RequestType.LD.hit_latency_hist_seqr |           0      0.00%      0.00% |    12753761    100.00%    100.00% |           0      0.00%    100.00% |           0      0.00%    100.00% |           0      0.00%    100.00% |           0      0.00%    100.00% |           0      0.00%    100.00% |           0      0.00%    100.00% |           0      0.00%    100.00% |           0      0.00%    100.00% (Unspecified)
system.caches.RequestType.LD.hit_latency_hist_seqr::total     12753761                       (Unspecified)
system.caches.RequestType.LD.miss_latency_hist_seqr::bucket_size          128                       (Unspecified)
system.caches.RequestType.LD.miss_latency_hist_seqr::max_bucket         1279                       (Unspecified)
system.caches.RequestType.LD.miss_latency_hist_seqr::samples       961871                       (Unspecified)
system.caches.RequestType.LD.miss_latency_hist_seqr::mean    61.944234                       (Unspecified)
system.caches.RequestType.LD.miss_latency_hist_seqr::gmean    24.095881                       (Unspecified)
system.caches.RequestType.LD.miss_latency_hist_seqr::stdev   118.187482                       (Unspecified)
system.caches.RequestType.LD.miss_latency_hist_seqr |      810965     84.31%     84.31% |       64364      6.69%     91.00% |       52643      5.47%     96.48% |       20193      2.10%     98.58% |        9449      0.98%     99.56% |        3261      0.34%     99.90% |         845      0.09%     99.98% |         135      0.01%    100.00% |          16      0.00%    100.00% |           0      0.00%    100.00% (Unspecified)
system.caches.RequestType.LD.miss_latency_hist_seqr::total       961871                       (Unspecified)
system.caches.RequestType.ST.latency_hist_seqr::bucket_size          128                       (Unspecified)
system.caches.RequestType.ST.latency_hist_seqr::max_bucket         1279                       (Unspecified)
system.caches.RequestType.ST.latency_hist_seqr::samples      6371544                       (Unspecified)
system.caches.RequestType.ST.latency_hist_seqr::mean     2.543848                       (Unspecified)
system.caches.RequestType.ST.latency_hist_seqr::gmean     1.072649                       (Unspecified)
system.caches.RequestType.ST.latency_hist_seqr::stdev    18.328113                       (Unspecified)
system.caches.RequestType.ST.latency_hist_seqr |     6341141     99.52%     99.52% |       17326      0.27%     99.79% |       12324      0.19%     99.99% |         694      0.01%    100.00% |          32      0.00%    100.00% |          25      0.00%    100.00% |           2      0.00%    100.00% |           0      0.00%    100.00% |           0      0.00%    100.00% |           0      0.00%    100.00% (Unspecified)
system.caches.RequestType.ST.latency_hist_seqr::total      6371544                       (Unspecified)
system.caches.RequestType.ST.hit_latency_hist_seqr::bucket_size            1                       (Unspecified)
system.caches.RequestType.ST.hit_latency_hist_seqr::max_bucket            9                       (Unspecified)
system.caches.RequestType.ST.hit_latency_hist_seqr::samples      6254547                       (Unspecified)
system.caches.RequestType.ST.hit_latency_hist_seqr::mean            1                       (Unspecified)
system.caches.RequestType.ST.hit_latency_hist_seqr::gmean            1                       (Unspecified)
system.caches.RequestType.ST.hit_latency_hist_seqr |           0      0.00%      0.00% |     6254547    100.00%    100.00% |           0      0.00%    100.00% |           0      0.00%    100.00% |           0      0.00%    100.00% |           0      0.00%    100.00% |           0      0.00%    100.00% |           0      0.00%    100.00% |           0      0.00%    100.00% |           0      0.00%    100.00% (Unspecified)
system.caches.RequestType.ST.hit_latency_hist_seqr::total      6254547                       (Unspecified)
system.caches.RequestType.ST.miss_latency_hist_seqr::bucket_size          128                       (Unspecified)
system.caches.RequestType.ST.miss_latency_hist_seqr::max_bucket         1279                       (Unspecified)
system.caches.RequestType.ST.miss_latency_hist_seqr::samples       116997                       (Unspecified)
system.caches.RequestType.ST.miss_latency_hist_seqr::mean    85.076472                       (Unspecified)
system.caches.RequestType.ST.miss_latency_hist_seqr::gmean    45.571061                       (Unspecified)
system.caches.RequestType.ST.miss_latency_hist_seqr::stdev   106.559411                       (Unspecified)
system.caches.RequestType.ST.miss_latency_hist_seqr |       86594     74.01%     74.01% |       17326     14.81%     88.82% |       12324     10.53%     99.36% |         694      0.59%     99.95% |          32      0.03%     99.98% |          25      0.02%    100.00% |           2      0.00%    100.00% |           0      0.00%    100.00% |           0      0.00%    100.00% |           0      0.00%    100.00% (Unspecified)
system.caches.RequestType.ST.miss_latency_hist_seqr::total       116997                       (Unspecified)
system.caches.RequestType.IFETCH.latency_hist_seqr::bucket_size          128                       (Unspecified)
system.caches.RequestType.IFETCH.latency_hist_seqr::max_bucket         1279                       (Unspecified)
system.caches.RequestType.IFETCH.latency_hist_seqr::samples     70394397                       (Unspecified)
system.caches.RequestType.IFETCH.latency_hist_seqr::mean     1.079498                       (Unspecified)
system.caches.RequestType.IFETCH.latency_hist_seqr::gmean     1.002495                       (Unspecified)
system.caches.RequestType.IFETCH.latency_hist_seqr::stdev     4.830262                       (Unspecified)
system.caches.RequestType.IFETCH.latency_hist_seqr |    70378252     99.98%     99.98% |        7971      0.01%     99.99% |        5808      0.01%    100.00% |        1398      0.00%    100.00% |         689      0.00%    100.00% |         241      0.00%    100.00% |          32      0.00%    100.00% |           6      0.00%    100.00% |           0      0.00%    100.00% |           0      0.00%    100.00% (Unspecified)
system.caches.RequestType.IFETCH.latency_hist_seqr::total     70394397                       (Unspecified)
system.caches.RequestType.IFETCH.hit_latency_hist_seqr::bucket_size            1                       (Unspecified)
system.caches.RequestType.IFETCH.hit_latency_hist_seqr::max_bucket            9                       (Unspecified)
system.caches.RequestType.IFETCH.hit_latency_hist_seqr::samples     70354225                       (Unspecified)
system.caches.RequestType.IFETCH.hit_latency_hist_seqr::mean            1                       (Unspecified)
system.caches.RequestType.IFETCH.hit_latency_hist_seqr::gmean            1                       (Unspecified)
system.caches.RequestType.IFETCH.hit_latency_hist_seqr |           0      0.00%      0.00% |    70354225    100.00%    100.00% |           0      0.00%    100.00% |           0      0.00%    100.00% |           0      0.00%    100.00% |           0      0.00%    100.00% |           0      0.00%    100.00% |           0      0.00%    100.00% |           0      0.00%    100.00% |           0      0.00%    100.00% (Unspecified)
system.caches.RequestType.IFETCH.hit_latency_hist_seqr::total     70354225                       (Unspecified)
system.caches.RequestType.IFETCH.miss_latency_hist_seqr::bucket_size          128                       (Unspecified)
system.caches.RequestType.IFETCH.miss_latency_hist_seqr::max_bucket         1279                       (Unspecified)
system.caches.RequestType.IFETCH.miss_latency_hist_seqr::samples        40172                       (Unspecified)
system.caches.RequestType.IFETCH.miss_latency_hist_seqr::mean   140.305835                       (Unspecified)
system.caches.RequestType.IFETCH.miss_latency_hist_seqr::gmean    78.808063                       (Unspecified)
system.caches.RequestType.IFETCH.miss_latency_hist_seqr::stdev   146.593786                       (Unspecified)
system.caches.RequestType.IFETCH.miss_latency_hist_seqr |       24027     59.81%     59.81% |        7971     19.84%     79.65% |        5808     14.46%     94.11% |        1398      3.48%     97.59% |         689      1.72%     99.31% |         241      0.60%     99.91% |          32      0.08%     99.99% |           6      0.01%    100.00% |           0      0.00%    100.00% |           0      0.00%    100.00% (Unspecified)
system.caches.RequestType.IFETCH.miss_latency_hist_seqr::total        40172                       (Unspecified)
system.caches.RequestType.RMW_Read.latency_hist_seqr::bucket_size           64                       (Unspecified)
system.caches.RequestType.RMW_Read.latency_hist_seqr::max_bucket          639                       (Unspecified)
system.caches.RequestType.RMW_Read.latency_hist_seqr::samples         2639                       (Unspecified)
system.caches.RequestType.RMW_Read.latency_hist_seqr::mean    14.907162                       (Unspecified)
system.caches.RequestType.RMW_Read.latency_hist_seqr::gmean     2.089730                       (Unspecified)
system.caches.RequestType.RMW_Read.latency_hist_seqr::stdev    50.650126                       (Unspecified)
system.caches.RequestType.RMW_Read.latency_hist_seqr |        2524     95.64%     95.64% |          17      0.64%     96.29% |          30      1.14%     97.42% |          22      0.83%     98.26% |          23      0.87%     99.13% |          21      0.80%     99.92% |           0      0.00%     99.92% |           1      0.04%     99.96% |           1      0.04%    100.00% |           0      0.00%    100.00% (Unspecified)
system.caches.RequestType.RMW_Read.latency_hist_seqr::total         2639                       (Unspecified)
system.caches.RequestType.RMW_Read.hit_latency_hist_seqr::bucket_size            1                       (Unspecified)
system.caches.RequestType.RMW_Read.hit_latency_hist_seqr::max_bucket            9                       (Unspecified)
system.caches.RequestType.RMW_Read.hit_latency_hist_seqr::samples         2104                       (Unspecified)
system.caches.RequestType.RMW_Read.hit_latency_hist_seqr::mean            1                       (Unspecified)
system.caches.RequestType.RMW_Read.hit_latency_hist_seqr::gmean            1                       (Unspecified)
system.caches.RequestType.RMW_Read.hit_latency_hist_seqr |           0      0.00%      0.00% |        2104    100.00%    100.00% |           0      0.00%    100.00% |           0      0.00%    100.00% |           0      0.00%    100.00% |           0      0.00%    100.00% |           0      0.00%    100.00% |           0      0.00%    100.00% |           0      0.00%    100.00% |           0      0.00%    100.00% (Unspecified)
system.caches.RequestType.RMW_Read.hit_latency_hist_seqr::total         2104                       (Unspecified)
system.caches.RequestType.RMW_Read.miss_latency_hist_seqr::bucket_size           64                       (Unspecified)
system.caches.RequestType.RMW_Read.miss_latency_hist_seqr::max_bucket          639                       (Unspecified)
system.caches.RequestType.RMW_Read.miss_latency_hist_seqr::samples          535                       (Unspecified)
system.caches.RequestType.RMW_Read.miss_latency_hist_seqr::mean    69.600000                       (Unspecified)
system.caches.RequestType.RMW_Read.miss_latency_hist_seqr::gmean    37.923824                       (Unspecified)
system.caches.RequestType.RMW_Read.miss_latency_hist_seqr::stdev    94.416564                       (Unspecified)
system.caches.RequestType.RMW_Read.miss_latency_hist_seqr |         420     78.50%     78.50% |          17      3.18%     81.68% |          30      5.61%     87.29% |          22      4.11%     91.40% |          23      4.30%     95.70% |          21      3.93%     99.63% |           0      0.00%     99.63% |           1      0.19%     99.81% |           1      0.19%    100.00% |           0      0.00%    100.00% (Unspecified)
system.caches.RequestType.RMW_Read.miss_latency_hist_seqr::total          535                       (Unspecified)
system.caches.RequestType.Locked_RMW_Read.latency_hist_seqr::bucket_size          128                       (Unspecified)
system.caches.RequestType.Locked_RMW_Read.latency_hist_seqr::max_bucket         1279                       (Unspecified)
system.caches.RequestType.Locked_RMW_Read.latency_hist_seqr::samples         1923                       (Unspecified)
system.caches.RequestType.Locked_RMW_Read.latency_hist_seqr::mean    50.114405                       (Unspecified)
system.caches.RequestType.Locked_RMW_Read.latency_hist_seqr::gmean     4.588160                       (Unspecified)
system.caches.RequestType.Locked_RMW_Read.latency_hist_seqr::stdev   120.214184                       (Unspecified)
system.caches.RequestType.Locked_RMW_Read.latency_hist_seqr |        1691     87.94%     87.94% |         109      5.67%     93.60% |          54      2.81%     96.41% |          22      1.14%     97.56% |          35      1.82%     99.38% |          10      0.52%     99.90% |           2      0.10%    100.00% |           0      0.00%    100.00% |           0      0.00%    100.00% |           0      0.00%    100.00% (Unspecified)
system.caches.RequestType.Locked_RMW_Read.latency_hist_seqr::total         1923                       (Unspecified)
system.caches.RequestType.Locked_RMW_Read.hit_latency_hist_seqr::bucket_size            1                       (Unspecified)
system.caches.RequestType.Locked_RMW_Read.hit_latency_hist_seqr::max_bucket            9                       (Unspecified)
system.caches.RequestType.Locked_RMW_Read.hit_latency_hist_seqr::samples         1257                       (Unspecified)
system.caches.RequestType.Locked_RMW_Read.hit_latency_hist_seqr::mean            1                       (Unspecified)
system.caches.RequestType.Locked_RMW_Read.hit_latency_hist_seqr::gmean            1                       (Unspecified)
system.caches.RequestType.Locked_RMW_Read.hit_latency_hist_seqr |           0      0.00%      0.00% |        1257    100.00%    100.00% |           0      0.00%    100.00% |           0      0.00%    100.00% |           0      0.00%    100.00% |           0      0.00%    100.00% |           0      0.00%    100.00% |           0      0.00%    100.00% |           0      0.00%    100.00% |           0      0.00%    100.00% (Unspecified)
system.caches.RequestType.Locked_RMW_Read.hit_latency_hist_seqr::total         1257                       (Unspecified)
system.caches.RequestType.Locked_RMW_Read.miss_latency_hist_seqr::bucket_size          128                       (Unspecified)
system.caches.RequestType.Locked_RMW_Read.miss_latency_hist_seqr::max_bucket         1279                       (Unspecified)
system.caches.RequestType.Locked_RMW_Read.miss_latency_hist_seqr::samples          666                       (Unspecified)
system.caches.RequestType.Locked_RMW_Read.miss_latency_hist_seqr::mean   142.812312                       (Unspecified)
system.caches.RequestType.Locked_RMW_Read.miss_latency_hist_seqr::gmean    81.359231                       (Unspecified)
system.caches.RequestType.Locked_RMW_Read.miss_latency_hist_seqr::stdev   169.122670                       (Unspecified)
system.caches.RequestType.Locked_RMW_Read.miss_latency_hist_seqr |         434     65.17%     65.17% |         109     16.37%     81.53% |          54      8.11%     89.64% |          22      3.30%     92.94% |          35      5.26%     98.20% |          10      1.50%     99.70% |           2      0.30%    100.00% |           0      0.00%    100.00% |           0      0.00%    100.00% |           0      0.00%    100.00% (Unspecified)
system.caches.RequestType.Locked_RMW_Read.miss_latency_hist_seqr::total          666                       (Unspecified)
system.caches.RequestType.Locked_RMW_Write.latency_hist_seqr::bucket_size            1                       (Unspecified)
system.caches.RequestType.Locked_RMW_Write.latency_hist_seqr::max_bucket            9                       (Unspecified)
system.caches.RequestType.Locked_RMW_Write.latency_hist_seqr::samples         1923                       (Unspecified)
system.caches.RequestType.Locked_RMW_Write.latency_hist_seqr::mean            1                       (Unspecified)
system.caches.RequestType.Locked_RMW_Write.latency_hist_seqr::gmean            1                       (Unspecified)
system.caches.RequestType.Locked_RMW_Write.latency_hist_seqr |           0      0.00%      0.00% |        1923    100.00%    100.00% |           0      0.00%    100.00% |           0      0.00%    100.00% |           0      0.00%    100.00% |           0      0.00%    100.00% |           0      0.00%    100.00% |           0      0.00%    100.00% |           0      0.00%    100.00% |           0      0.00%    100.00% (Unspecified)
system.caches.RequestType.Locked_RMW_Write.latency_hist_seqr::total         1923                       (Unspecified)
system.caches.RequestType.Locked_RMW_Write.hit_latency_hist_seqr::bucket_size            1                       (Unspecified)
system.caches.RequestType.Locked_RMW_Write.hit_latency_hist_seqr::max_bucket            9                       (Unspecified)
system.caches.RequestType.Locked_RMW_Write.hit_latency_hist_seqr::samples         1923                       (Unspecified)
system.caches.RequestType.Locked_RMW_Write.hit_latency_hist_seqr::mean            1                       (Unspecified)
system.caches.RequestType.Locked_RMW_Write.hit_latency_hist_seqr::gmean            1                       (Unspecified)
system.caches.RequestType.Locked_RMW_Write.hit_latency_hist_seqr |           0      0.00%      0.00% |        1923    100.00%    100.00% |           0      0.00%    100.00% |           0      0.00%    100.00% |           0      0.00%    100.00% |           0      0.00%    100.00% |           0      0.00%    100.00% |           0      0.00%    100.00% |           0      0.00%    100.00% |           0      0.00%    100.00% (Unspecified)
system.caches.RequestType.Locked_RMW_Write.hit_latency_hist_seqr::total         1923                       (Unspecified)
system.caches.controllers0.DCache.m_demand_hits            0                       # Number of cache demand hits (Unspecified)
system.caches.controllers0.DCache.m_demand_misses            0                       # Number of cache demand misses (Unspecified)
system.caches.controllers0.DCache.m_demand_accesses            0                       # Number of cache demand accesses (Unspecified)
system.caches.controllers0.ICache.m_demand_hits            0                       # Number of cache demand hits (Unspecified)
system.caches.controllers0.ICache.m_demand_misses            0                       # Number of cache demand misses (Unspecified)
system.caches.controllers0.ICache.m_demand_accesses            0                       # Number of cache demand accesses (Unspecified)
system.caches.controllers0.forwardFromL1.m_buf_msgs     1.192452                       # Average number of messages in buffer (Unspecified)
system.caches.controllers0.forwardFromL1.m_stall_time  5001.350004                       # Average number of cycles messages are stalled in this MB (Unspecified)
system.caches.controllers0.mandatoryQueue.m_buf_msgs     0.334796                       # Average number of messages in buffer (Unspecified)
system.caches.controllers0.mandatoryQueue.m_stall_time   999.999991                       # Average number of cycles messages are stalled in this MB (Unspecified)
system.caches.controllers0.power_state.pwrStateResidencyTicks::UNDEFINED 105361151000                       # Cumulative time (in ticks) in various power states (Tick)
system.caches.controllers0.requestToL1.m_buf_msgs     0.005070                       # Average number of messages in buffer (Unspecified)
system.caches.controllers0.requestToL1.m_stall_time   999.999981                       # Average number of cycles messages are stalled in this MB (Unspecified)
system.caches.controllers0.responseFromL1.m_buf_msgs     0.003560                       # Average number of messages in buffer (Unspecified)
system.caches.controllers0.responseFromL1.m_stall_time  4999.993783                       # Average number of cycles messages are stalled in this MB (Unspecified)
system.caches.controllers0.responseToL1.m_buf_msgs     0.000091                       # Average number of messages in buffer (Unspecified)
system.caches.controllers0.responseToL1.m_stall_time   999.848407                       # Average number of cycles messages are stalled in this MB (Unspecified)
system.caches.controllers0.xyzStatsObject.power_state.pwrStateResidencyTicks::UNDEFINED 105361151000                       # Cumulative time (in ticks) in various power states (Tick)
system.caches.controllers1.DCache.m_demand_hits            0                       # Number of cache demand hits (Unspecified)
system.caches.controllers1.DCache.m_demand_misses            0                       # Number of cache demand misses (Unspecified)
system.caches.controllers1.DCache.m_demand_accesses            0                       # Number of cache demand accesses (Unspecified)
system.caches.controllers1.ICache.m_demand_hits            0                       # Number of cache demand hits (Unspecified)
system.caches.controllers1.ICache.m_demand_misses            0                       # Number of cache demand misses (Unspecified)
system.caches.controllers1.ICache.m_demand_accesses            0                       # Number of cache demand accesses (Unspecified)
system.caches.controllers1.forwardFromL1.m_buf_msgs     0.538814                       # Average number of messages in buffer (Unspecified)
system.caches.controllers1.forwardFromL1.m_stall_time  2890.189317                       # Average number of cycles messages are stalled in this MB (Unspecified)
system.caches.controllers1.mandatoryQueue.m_buf_msgs     0.171326                       # Average number of messages in buffer (Unspecified)
system.caches.controllers1.mandatoryQueue.m_stall_time   577.863401                       # Average number of cycles messages are stalled in this MB (Unspecified)
system.caches.controllers1.power_state.pwrStateResidencyTicks::UNDEFINED 105361151000                       # Cumulative time (in ticks) in various power states (Tick)
system.caches.controllers1.requestToL1.m_buf_msgs     0.003410                       # Average number of messages in buffer (Unspecified)
system.caches.controllers1.requestToL1.m_stall_time   577.863391                       # Average number of cycles messages are stalled in this MB (Unspecified)
system.caches.controllers1.responseFromL1.m_buf_msgs     0.002315                       # Average number of messages in buffer (Unspecified)
system.caches.controllers1.responseFromL1.m_stall_time  2889.315674                       # Average number of cycles messages are stalled in this MB (Unspecified)
system.caches.controllers1.responseToL1.m_buf_msgs     0.000073                       # Average number of messages in buffer (Unspecified)
system.caches.controllers1.responseToL1.m_stall_time   577.509503                       # Average number of cycles messages are stalled in this MB (Unspecified)
system.caches.controllers1.xyzStatsObject.power_state.pwrStateResidencyTicks::UNDEFINED 105361151000                       # Cumulative time (in ticks) in various power states (Tick)
system.caches.controllers2.DCache.m_demand_hits            0                       # Number of cache demand hits (Unspecified)
system.caches.controllers2.DCache.m_demand_misses            0                       # Number of cache demand misses (Unspecified)
system.caches.controllers2.DCache.m_demand_accesses            0                       # Number of cache demand accesses (Unspecified)
system.caches.controllers2.ICache.m_demand_hits            0                       # Number of cache demand hits (Unspecified)
system.caches.controllers2.ICache.m_demand_misses            0                       # Number of cache demand misses (Unspecified)
system.caches.controllers2.ICache.m_demand_accesses            0                       # Number of cache demand accesses (Unspecified)
system.caches.controllers2.forwardFromL1.m_buf_msgs     1.163587                       # Average number of messages in buffer (Unspecified)
system.caches.controllers2.forwardFromL1.m_stall_time  2887.376107                       # Average number of cycles messages are stalled in this MB (Unspecified)
system.caches.controllers2.forwardFromL1.m_stall_count            1                       # Number of times messages were stalled (Unspecified)
system.caches.controllers2.mandatoryQueue.m_buf_msgs     0.150621                       # Average number of messages in buffer (Unspecified)
system.caches.controllers2.mandatoryQueue.m_stall_time   577.339792                       # Average number of cycles messages are stalled in this MB (Unspecified)
system.caches.controllers2.power_state.pwrStateResidencyTicks::UNDEFINED 105361151000                       # Cumulative time (in ticks) in various power states (Tick)
system.caches.controllers2.requestToL1.m_buf_msgs     0.002996                       # Average number of messages in buffer (Unspecified)
system.caches.controllers2.requestToL1.m_stall_time   577.339782                       # Average number of cycles messages are stalled in this MB (Unspecified)
system.caches.controllers2.responseFromL1.m_buf_msgs     0.002036                       # Average number of messages in buffer (Unspecified)
system.caches.controllers2.responseFromL1.m_stall_time  2886.693265                       # Average number of cycles messages are stalled in this MB (Unspecified)
system.caches.controllers2.responseToL1.m_buf_msgs     0.000065                       # Average number of messages in buffer (Unspecified)
system.caches.controllers2.responseToL1.m_stall_time   577.248734                       # Average number of cycles messages are stalled in this MB (Unspecified)
system.caches.controllers2.xyzStatsObject.power_state.pwrStateResidencyTicks::UNDEFINED 105361151000                       # Cumulative time (in ticks) in various power states (Tick)
system.caches.controllers3.DCache.m_demand_hits            0                       # Number of cache demand hits (Unspecified)
system.caches.controllers3.DCache.m_demand_misses            0                       # Number of cache demand misses (Unspecified)
system.caches.controllers3.DCache.m_demand_accesses            0                       # Number of cache demand accesses (Unspecified)
system.caches.controllers3.ICache.m_demand_hits            0                       # Number of cache demand hits (Unspecified)
system.caches.controllers3.ICache.m_demand_misses            0                       # Number of cache demand misses (Unspecified)
system.caches.controllers3.ICache.m_demand_accesses            0                       # Number of cache demand accesses (Unspecified)
system.caches.controllers3.forwardFromL1.m_buf_msgs     0.000469                       # Average number of messages in buffer (Unspecified)
system.caches.controllers3.forwardFromL1.m_stall_time  2884.099150                       # Average number of cycles messages are stalled in this MB (Unspecified)
system.caches.controllers3.mandatoryQueue.m_buf_msgs     0.202094                       # Average number of messages in buffer (Unspecified)
system.caches.controllers3.mandatoryQueue.m_stall_time   576.778522                       # Average number of cycles messages are stalled in this MB (Unspecified)
system.caches.controllers3.power_state.pwrStateResidencyTicks::UNDEFINED 105361151000                       # Cumulative time (in ticks) in various power states (Tick)
system.caches.controllers3.requestToL1.m_buf_msgs     0.004029                       # Average number of messages in buffer (Unspecified)
system.caches.controllers3.requestToL1.m_stall_time   576.778513                       # Average number of cycles messages are stalled in this MB (Unspecified)
system.caches.controllers3.responseFromL1.m_buf_msgs     0.002721                       # Average number of messages in buffer (Unspecified)
system.caches.controllers3.responseFromL1.m_stall_time  2883.886396                       # Average number of cycles messages are stalled in this MB (Unspecified)
system.caches.controllers3.responseToL1.m_buf_msgs     0.000053                       # Average number of messages in buffer (Unspecified)
system.caches.controllers3.responseToL1.m_stall_time   576.695845                       # Average number of cycles messages are stalled in this MB (Unspecified)
system.caches.controllers3.xyzStatsObject.power_state.pwrStateResidencyTicks::UNDEFINED 105361151000                       # Cumulative time (in ticks) in various power states (Tick)
system.caches.controllers4.cacheMemory.m_demand_hits            0                       # Number of cache demand hits (Unspecified)
system.caches.controllers4.cacheMemory.m_demand_misses            0                       # Number of cache demand misses (Unspecified)
system.caches.controllers4.cacheMemory.m_demand_accesses            0                       # Number of cache demand accesses (Unspecified)
system.caches.controllers4.forwardFromDir.m_buf_msgs     0.001586                       # Average number of messages in buffer (Unspecified)
system.caches.controllers4.forwardFromDir.m_stall_time  5546.569978                       # Average number of cycles messages are stalled in this MB (Unspecified)
system.caches.controllers4.forwardFromDir.m_stall_count         5221                       # Number of times messages were stalled (Unspecified)
system.caches.controllers4.forwardToL0.m_buf_msgs     0.000790                       # Average number of messages in buffer (Unspecified)
system.caches.controllers4.forwardToL0.m_stall_time   999.913488                       # Average number of cycles messages are stalled in this MB (Unspecified)
system.caches.controllers4.power_state.pwrStateResidencyTicks::UNDEFINED 105361151000                       # Cumulative time (in ticks) in various power states (Tick)
system.caches.controllers4.requestFromL0.m_buf_msgs     0.033178                       # Average number of messages in buffer (Unspecified)
system.caches.controllers4.requestFromL0.m_stall_time 16638.077691                       # Average number of cycles messages are stalled in this MB (Unspecified)
system.caches.controllers4.requestFromL0.m_stall_count       114072                       # Number of times messages were stalled (Unspecified)
system.caches.controllers4.requestToDir.m_buf_msgs     0.002357                       # Average number of messages in buffer (Unspecified)
system.caches.controllers4.requestToDir.m_stall_time   999.999934                       # Average number of cycles messages are stalled in this MB (Unspecified)
system.caches.controllers4.responseFromDirOrSibling.m_buf_msgs     0.001319                       # Average number of messages in buffer (Unspecified)
system.caches.controllers4.responseFromDirOrSibling.m_stall_time 12766.235526                       # Average number of cycles messages are stalled in this MB (Unspecified)
system.caches.controllers4.responseFromL0.m_buf_msgs     0.000091                       # Average number of messages in buffer (Unspecified)
system.caches.controllers4.responseFromL0.m_stall_time  4999.255959                       # Average number of cycles messages are stalled in this MB (Unspecified)
system.caches.controllers4.responseToDirOrSibling.m_buf_msgs     0.000055                       # Average number of messages in buffer (Unspecified)
system.caches.controllers4.responseToDirOrSibling.m_stall_time   577.861996                       # Average number of cycles messages are stalled in this MB (Unspecified)
system.caches.controllers4.responseToL0.m_buf_msgs     0.003560                       # Average number of messages in buffer (Unspecified)
system.caches.controllers4.responseToL0.m_stall_time   999.998795                       # Average number of cycles messages are stalled in this MB (Unspecified)
system.caches.controllers4.xyzStatsObject.power_state.pwrStateResidencyTicks::UNDEFINED 105361151000                       # Cumulative time (in ticks) in various power states (Tick)
system.caches.controllers5.cacheMemory.m_demand_hits            0                       # Number of cache demand hits (Unspecified)
system.caches.controllers5.cacheMemory.m_demand_misses            0                       # Number of cache demand misses (Unspecified)
system.caches.controllers5.cacheMemory.m_demand_accesses            0                       # Number of cache demand accesses (Unspecified)
system.caches.controllers5.forwardFromDir.m_buf_msgs     0.001218                       # Average number of messages in buffer (Unspecified)
system.caches.controllers5.forwardFromDir.m_stall_time  3895.247879                       # Average number of cycles messages are stalled in this MB (Unspecified)
system.caches.controllers5.forwardFromDir.m_stall_count         6351                       # Number of times messages were stalled (Unspecified)
system.caches.controllers5.forwardToL0.m_buf_msgs     0.000426                       # Average number of messages in buffer (Unspecified)
system.caches.controllers5.forwardToL0.m_stall_time   577.757422                       # Average number of cycles messages are stalled in this MB (Unspecified)
system.caches.controllers5.power_state.pwrStateResidencyTicks::UNDEFINED 105361151000                       # Cumulative time (in ticks) in various power states (Tick)
system.caches.controllers5.requestFromL0.m_buf_msgs     0.025454                       # Average number of messages in buffer (Unspecified)
system.caches.controllers5.requestFromL0.m_stall_time  9861.987698                       # Average number of cycles messages are stalled in this MB (Unspecified)
system.caches.controllers5.requestFromL0.m_stall_count        59712                       # Number of times messages were stalled (Unspecified)
system.caches.controllers5.requestToDir.m_buf_msgs     0.001368                       # Average number of messages in buffer (Unspecified)
system.caches.controllers5.requestToDir.m_stall_time   577.863344                       # Average number of cycles messages are stalled in this MB (Unspecified)
system.caches.controllers5.responseFromDirOrSibling.m_buf_msgs     0.000817                       # Average number of messages in buffer (Unspecified)
system.caches.controllers5.responseFromDirOrSibling.m_stall_time  7277.896670                       # Average number of cycles messages are stalled in this MB (Unspecified)
system.caches.controllers5.responseFromL0.m_buf_msgs     0.000073                       # Average number of messages in buffer (Unspecified)
system.caches.controllers5.responseFromL0.m_stall_time  2887.547328                       # Average number of cycles messages are stalled in this MB (Unspecified)
system.caches.controllers5.responseToDirOrSibling.m_buf_msgs     0.000067                       # Average number of messages in buffer (Unspecified)
system.caches.controllers5.responseToDirOrSibling.m_stall_time   577.290514                       # Average number of cycles messages are stalled in this MB (Unspecified)
system.caches.controllers5.responseToL0.m_buf_msgs     0.002315                       # Average number of messages in buffer (Unspecified)
system.caches.controllers5.responseToL0.m_stall_time   577.863173                       # Average number of cycles messages are stalled in this MB (Unspecified)
system.caches.controllers5.xyzStatsObject.power_state.pwrStateResidencyTicks::UNDEFINED 105361151000                       # Cumulative time (in ticks) in various power states (Tick)
system.caches.controllers6.cacheMemory.m_demand_hits            0                       # Number of cache demand hits (Unspecified)
system.caches.controllers6.cacheMemory.m_demand_misses            0                       # Number of cache demand misses (Unspecified)
system.caches.controllers6.cacheMemory.m_demand_accesses            0                       # Number of cache demand accesses (Unspecified)
system.caches.controllers6.forwardFromDir.m_buf_msgs     0.001088                       # Average number of messages in buffer (Unspecified)
system.caches.controllers6.forwardFromDir.m_stall_time  3380.463440                       # Average number of cycles messages are stalled in this MB (Unspecified)
system.caches.controllers6.forwardFromDir.m_stall_count         5749                       # Number of times messages were stalled (Unspecified)
system.caches.controllers6.forwardToL0.m_buf_msgs     0.000377                       # Average number of messages in buffer (Unspecified)
system.caches.controllers6.forwardToL0.m_stall_time   577.248781                       # Average number of cycles messages are stalled in this MB (Unspecified)
system.caches.controllers6.power_state.pwrStateResidencyTicks::UNDEFINED 105361151000                       # Cumulative time (in ticks) in various power states (Tick)
system.caches.controllers6.requestFromL0.m_buf_msgs     0.024003                       # Average number of messages in buffer (Unspecified)
system.caches.controllers6.requestFromL0.m_stall_time  9493.853555                       # Average number of cycles messages are stalled in this MB (Unspecified)
system.caches.controllers6.requestFromL0.m_stall_count        52529                       # Number of times messages were stalled (Unspecified)
system.caches.controllers6.requestToDir.m_buf_msgs     0.001204                       # Average number of messages in buffer (Unspecified)
system.caches.controllers6.requestToDir.m_stall_time   577.339735                       # Average number of cycles messages are stalled in this MB (Unspecified)
system.caches.controllers6.responseFromDirOrSibling.m_buf_msgs     0.000719                       # Average number of messages in buffer (Unspecified)
system.caches.controllers6.responseFromDirOrSibling.m_stall_time  7294.998495                       # Average number of cycles messages are stalled in this MB (Unspecified)
system.caches.controllers6.responseFromL0.m_buf_msgs     0.000065                       # Average number of messages in buffer (Unspecified)
system.caches.controllers6.responseFromL0.m_stall_time  2886.302248                       # Average number of cycles messages are stalled in this MB (Unspecified)
system.caches.controllers6.responseToDirOrSibling.m_buf_msgs     0.000059                       # Average number of messages in buffer (Unspecified)
system.caches.controllers6.responseToDirOrSibling.m_stall_time   577.212041                       # Average number of cycles messages are stalled in this MB (Unspecified)
system.caches.controllers6.responseToL0.m_buf_msgs     0.002036                       # Average number of messages in buffer (Unspecified)
system.caches.controllers6.responseToL0.m_stall_time   577.338691                       # Average number of cycles messages are stalled in this MB (Unspecified)
system.caches.controllers6.xyzStatsObject.power_state.pwrStateResidencyTicks::UNDEFINED 105361151000                       # Cumulative time (in ticks) in various power states (Tick)
system.caches.controllers7.cacheMemory.m_demand_hits            0                       # Number of cache demand hits (Unspecified)
system.caches.controllers7.cacheMemory.m_demand_misses            0                       # Number of cache demand misses (Unspecified)
system.caches.controllers7.cacheMemory.m_demand_accesses            0                       # Number of cache demand accesses (Unspecified)
system.caches.controllers7.forwardFromDir.m_buf_msgs     0.001067                       # Average number of messages in buffer (Unspecified)
system.caches.controllers7.forwardFromDir.m_stall_time  3085.552663                       # Average number of cycles messages are stalled in this MB (Unspecified)
system.caches.controllers7.forwardFromDir.m_stall_count         3901                       # Number of times messages were stalled (Unspecified)
system.caches.controllers7.forwardToL0.m_buf_msgs     0.000469                       # Average number of messages in buffer (Unspecified)
system.caches.controllers7.forwardToL0.m_stall_time   576.695892                       # Average number of cycles messages are stalled in this MB (Unspecified)
system.caches.controllers7.power_state.pwrStateResidencyTicks::UNDEFINED 105361151000                       # Cumulative time (in ticks) in various power states (Tick)
system.caches.controllers7.requestFromL0.m_buf_msgs     0.029320                       # Average number of messages in buffer (Unspecified)
system.caches.controllers7.requestFromL0.m_stall_time 10658.158205                       # Average number of cycles messages are stalled in this MB (Unspecified)
system.caches.controllers7.requestFromL0.m_stall_count        70409                       # Number of times messages were stalled (Unspecified)
system.caches.controllers7.requestToDir.m_buf_msgs     0.001583                       # Average number of messages in buffer (Unspecified)
system.caches.controllers7.requestToDir.m_stall_time   576.778466                       # Average number of cycles messages are stalled in this MB (Unspecified)
system.caches.controllers7.responseFromDirOrSibling.m_buf_msgs     0.000932                       # Average number of messages in buffer (Unspecified)
system.caches.controllers7.responseFromDirOrSibling.m_stall_time  7275.995827                       # Average number of cycles messages are stalled in this MB (Unspecified)
system.caches.controllers7.responseFromL0.m_buf_msgs     0.000053                       # Average number of messages in buffer (Unspecified)
system.caches.controllers7.responseFromL0.m_stall_time  2883.482281                       # Average number of cycles messages are stalled in this MB (Unspecified)
system.caches.controllers7.responseToDirOrSibling.m_buf_msgs     0.000048                       # Average number of messages in buffer (Unspecified)
system.caches.controllers7.responseToDirOrSibling.m_stall_time   576.687825                       # Average number of cycles messages are stalled in this MB (Unspecified)
system.caches.controllers7.responseToL0.m_buf_msgs     0.002721                       # Average number of messages in buffer (Unspecified)
system.caches.controllers7.responseToL0.m_stall_time   576.777317                       # Average number of cycles messages are stalled in this MB (Unspecified)
system.caches.controllers7.xyzStatsObject.power_state.pwrStateResidencyTicks::UNDEFINED 105361151000                       # Cumulative time (in ticks) in various power states (Tick)
system.caches.controllers8.cacheMemory.m_demand_hits            0                       # Number of cache demand hits (Unspecified)
system.caches.controllers8.cacheMemory.m_demand_misses            0                       # Number of cache demand misses (Unspecified)
system.caches.controllers8.cacheMemory.m_demand_accesses            0                       # Number of cache demand accesses (Unspecified)
system.caches.controllers8.forwardToCache.m_buf_msgs     0.003782                       # Average number of messages in buffer (Unspecified)
system.caches.controllers8.forwardToCache.m_stall_time   999.960175                       # Average number of cycles messages are stalled in this MB (Unspecified)
system.caches.controllers8.power_state.pwrStateResidencyTicks::UNDEFINED 105361151000                       # Cumulative time (in ticks) in various power states (Tick)
system.caches.controllers8.requestFromCache.m_not_avail_count       199466                       # Number of times this buffer did not have N slots available (Unspecified)
system.caches.controllers8.requestFromCache.m_buf_msgs     0.006512                       # Average number of messages in buffer (Unspecified)
system.caches.controllers8.requestFromCache.m_stall_time 88653.112997                       # Average number of cycles messages are stalled in this MB (Unspecified)
system.caches.controllers8.requestFromCache.m_occupancy     0.006512                       # Average occupancy of buffer capacity (Unspecified)
system.caches.controllers8.requestToMemory.m_buf_msgs     0.002164                       # Average number of messages in buffer (Unspecified)
system.caches.controllers8.requestToMemory.m_stall_time   999.999886                       # Average number of cycles messages are stalled in this MB (Unspecified)
system.caches.controllers8.responseFromMemory.m_buf_msgs     0.002164                       # Average number of messages in buffer (Unspecified)
system.caches.controllers8.responseFromMemory.m_stall_time   999.998927                       # Average number of cycles messages are stalled in this MB (Unspecified)
system.caches.controllers8.responseToCache.m_buf_msgs     0.032009                       # Average number of messages in buffer (Unspecified)
system.caches.controllers8.responseToCache.m_stall_time  8999.989579                       # Average number of cycles messages are stalled in this MB (Unspecified)
system.caches.controllers8.xyzCacheMemory.m_demand_hits            0                       # Number of cache demand hits (Unspecified)
system.caches.controllers8.xyzCacheMemory.m_demand_misses            0                       # Number of cache demand misses (Unspecified)
system.caches.controllers8.xyzCacheMemory.m_demand_accesses            0                       # Number of cache demand accesses (Unspecified)
system.caches.controllers8.xyzStatsObject.power_state.pwrStateResidencyTicks::UNDEFINED 105361151000                       # Cumulative time (in ticks) in various power states (Tick)
system.caches.network.msg_count.Control       4470506                       (Unspecified)
system.caches.network.msg_byte.Control       35764048                       (Unspecified)
system.caches.network.msg_count.Data          3781408                       (Unspecified)
system.caches.network.msg_byte.Data         272261376                       (Unspecified)
system.caches.network.msg_count.Response_Data       542706                       (Unspecified)
system.caches.network.msg_byte.Response_Data     39074832                       (Unspecified)
system.caches.network.int_link_buffers102.m_buf_msgs     0.000377                       # Average number of messages in buffer (Unspecified)
system.caches.network.int_link_buffers102.m_stall_time  1732.870771                       # Average number of cycles messages are stalled in this MB (Unspecified)
system.caches.network.int_link_buffers103.m_buf_msgs     0.002036                       # Average number of messages in buffer (Unspecified)
system.caches.network.int_link_buffers103.m_stall_time  1732.016016                       # Average number of cycles messages are stalled in this MB (Unspecified)
system.caches.network.int_link_buffers107.m_buf_msgs     0.000022                       # Average number of messages in buffer (Unspecified)
system.caches.network.int_link_buffers107.m_stall_time  1730.644676                       # Average number of cycles messages are stalled in this MB (Unspecified)
system.caches.network.int_link_buffers11.m_buf_msgs     0.003410                       # Average number of messages in buffer (Unspecified)
system.caches.network.int_link_buffers11.m_stall_time  2793.426336                       # Average number of cycles messages are stalled in this MB (Unspecified)
system.caches.network.int_link_buffers114.m_buf_msgs     0.000028                       # Average number of messages in buffer (Unspecified)
system.caches.network.int_link_buffers114.m_stall_time  1731.636066                       # Average number of cycles messages are stalled in this MB (Unspecified)
system.caches.network.int_link_buffers12.m_buf_msgs     0.000073                       # Average number of messages in buffer (Unspecified)
system.caches.network.int_link_buffers12.m_stall_time  1732.528454                       # Average number of cycles messages are stalled in this MB (Unspecified)
system.caches.network.int_link_buffers121.m_buf_msgs     0.000010                       # Average number of messages in buffer (Unspecified)
system.caches.network.int_link_buffers121.m_stall_time  1730.045793                       # Average number of cycles messages are stalled in this MB (Unspecified)
system.caches.network.int_link_buffers126.m_buf_msgs     0.073086                       # Average number of messages in buffer (Unspecified)
system.caches.network.int_link_buffers126.m_stall_time 33371.817227                       # Average number of cycles messages are stalled in this MB (Unspecified)
system.caches.network.int_link_buffers137.m_buf_msgs     0.000469                       # Average number of messages in buffer (Unspecified)
system.caches.network.int_link_buffers137.m_stall_time  1730.707498                       # Average number of cycles messages are stalled in this MB (Unspecified)
system.caches.network.int_link_buffers138.m_buf_msgs     0.002721                       # Average number of messages in buffer (Unspecified)
system.caches.network.int_link_buffers138.m_stall_time  1730.331894                       # Average number of cycles messages are stalled in this MB (Unspecified)
[...]
system.caches.controllers2.xyzStatsObjectlatency::underflows            0      0.00%      0.00% # Mem access latency (Unspecified)
system.caches.controllers2.xyzStatsObjectlatency::0-49999       214519    100.00%    100.00% # Mem access latency (Unspecified)
system.caches.controllers2.xyzStatsObjectlatency::50000-99999            0      0.00%    100.00% # Mem access latency (Unspecified)
system.caches.controllers2.xyzStatsObjectlatency::100000            0      0.00%    100.00% # Mem access latency (Unspecified)
system.caches.controllers2.xyzStatsObjectlatency::overflows            0      0.00%    100.00% # Mem access latency (Unspecified)
system.caches.controllers2.xyzStatsObjectlatency::min_value           10                       # Mem access latency (Unspecified)
system.caches.controllers2.xyzStatsObjectlatency::max_value         1050                       # Mem access latency (Unspecified)
system.caches.controllers2.xyzStatsObjectlatency::total       214519                       # Mem access latency (Unspecified)
system.caches.controllers3.xyzStatsObject.total_put            0                       # Total number of put (PutM + PutS) (Unspecified)
system.caches.controllers3.xyzStatsObject.total_put_as_wt            0                       # Total number of put as write through (Unspecified)
system.caches.controllers3.xyzStatsObject.total_putm            0                       # Total number of PutM (Unspecified)
system.caches.controllers3.xyzStatsObject.total_putm_as_wt            0                       # Total number of PutM as write through (Unspecified)
system.caches.controllers3.xyzStatsObject.total_puts            0                       # Total number of PutS (Unspecified)
system.caches.controllers3.xyzStatsObject.total_puts_as_wt            0                       # Total number of PutS as write through (Unspecified)
system.caches.controllers3.xyzStatsObject.total_repl            0                       # Total Replacement (Unspecified)
system.caches.controllers3.xyzStatsObject.total_repl_llc            0                       # Total Replacement of LLC line (Unspecified)
system.caches.controllers3.xyzStatsObject.total_repl_owned            0                       # Total Replacement of owned line (Unspecified)
system.caches.controllers3.xyzStatsObject.total_repl_shared            0                       # Total Replacement of shared line (Unspecified)
system.caches.controllers3.xyzStatsObject.wt_putRatio          nan                       # WT / Put (Unspecified)
system.caches.controllers3.xyzStatsObject.wt_putmRatio          nan                       # PutM WT / PutM (Unspecified)
system.caches.controllers3.xyzStatsObject.wt_putsRatio          nan                       # PutS WT / PutS (Unspecified)
system.caches.controllers3.xyzStatsObjectlatency::samples       286702                       # Mem access latency (Unspecified)
system.caches.controllers3.xyzStatsObjectlatency::mean    59.323664                       # Mem access latency (Unspecified)
system.caches.controllers3.xyzStatsObjectlatency::stdev   113.741815                       # Mem access latency (Unspecified)
system.caches.controllers3.xyzStatsObjectlatency::underflows            0      0.00%      0.00% # Mem access latency (Unspecified)
system.caches.controllers3.xyzStatsObjectlatency::0-49999       286702    100.00%    100.00% # Mem access latency (Unspecified)
system.caches.controllers3.xyzStatsObjectlatency::50000-99999            0      0.00%    100.00% # Mem access latency (Unspecified)
system.caches.controllers3.xyzStatsObjectlatency::100000            0      0.00%    100.00% # Mem access latency (Unspecified)
system.caches.controllers3.xyzStatsObjectlatency::overflows            0      0.00%    100.00% # Mem access latency (Unspecified)
system.caches.controllers3.xyzStatsObjectlatency::min_value           10                       # Mem access latency (Unspecified)
system.caches.controllers3.xyzStatsObjectlatency::max_value         1072                       # Mem access latency (Unspecified)
system.caches.controllers3.xyzStatsObjectlatency::total       286702                       # Mem access latency (Unspecified)
system.caches.controllers4.xyzStatsObject.total_put            0                       # Total number of put (PutM + PutS) (Unspecified)
system.caches.controllers4.xyzStatsObject.total_put_as_wt            0                       # Total number of put as write through (Unspecified)
system.caches.controllers4.xyzStatsObject.total_putm            0                       # Total number of PutM (Unspecified)
system.caches.controllers4.xyzStatsObject.total_putm_as_wt            0                       # Total number of PutM as write through (Unspecified)
system.caches.controllers4.xyzStatsObject.total_puts            0                       # Total number of PutS (Unspecified)
system.caches.controllers4.xyzStatsObject.total_puts_as_wt            0                       # Total number of PutS as write through (Unspecified)
system.caches.controllers4.xyzStatsObject.total_repl            0                       # Total Replacement (Unspecified)
system.caches.controllers4.xyzStatsObject.total_repl_llc            0                       # Total Replacement of LLC line (Unspecified)
system.caches.controllers4.xyzStatsObject.total_repl_owned            0                       # Total Replacement of owned line (Unspecified)
system.caches.controllers4.xyzStatsObject.total_repl_shared            0                       # Total Replacement of shared line (Unspecified)
system.caches.controllers4.xyzStatsObject.wt_putRatio          nan                       # WT / Put (Unspecified)
system.caches.controllers4.xyzStatsObject.wt_putmRatio          nan                       # PutM WT / PutM (Unspecified)
system.caches.controllers4.xyzStatsObject.wt_putsRatio          nan                       # PutS WT / PutS (Unspecified)
system.caches.controllers4.xyzStatsObjectlatency::samples       138954                       # Mem access latency (Unspecified)
system.caches.controllers4.xyzStatsObjectlatency::mean   157.683046                       # Mem access latency (Unspecified)
system.caches.controllers4.xyzStatsObjectlatency::stdev   133.050425                       # Mem access latency (Unspecified)
system.caches.controllers4.xyzStatsObjectlatency::underflows            0      0.00%      0.00% # Mem access latency (Unspecified)
system.caches.controllers4.xyzStatsObjectlatency::0-49999       138954    100.00%    100.00% # Mem access latency (Unspecified)
system.caches.controllers4.xyzStatsObjectlatency::50000-99999            0      0.00%    100.00% # Mem access latency (Unspecified)
system.caches.controllers4.xyzStatsObjectlatency::100000            0      0.00%    100.00% # Mem access latency (Unspecified)
system.caches.controllers4.xyzStatsObjectlatency::overflows            0      0.00%    100.00% # Mem access latency (Unspecified)
system.caches.controllers4.xyzStatsObjectlatency::min_value           15                       # Mem access latency (Unspecified)
system.caches.controllers4.xyzStatsObjectlatency::max_value          732                       # Mem access latency (Unspecified)
system.caches.controllers4.xyzStatsObjectlatency::total       138954                       # Mem access latency (Unspecified)
system.caches.controllers5.xyzStatsObject.total_put            0                       # Total number of put (PutM + PutS) (Unspecified)
system.caches.controllers5.xyzStatsObject.total_put_as_wt            0                       # Total number of put as write through (Unspecified)
system.caches.controllers5.xyzStatsObject.total_putm            0                       # Total number of PutM (Unspecified)
system.caches.controllers5.xyzStatsObject.total_putm_as_wt            0                       # Total number of PutM as write through (Unspecified)
system.caches.controllers5.xyzStatsObject.total_puts            0                       # Total number of PutS (Unspecified)
system.caches.controllers5.xyzStatsObject.total_puts_as_wt            0                       # Total number of PutS as write through (Unspecified)
system.caches.controllers5.xyzStatsObject.total_repl            0                       # Total Replacement (Unspecified)
system.caches.controllers5.xyzStatsObject.total_repl_llc            0                       # Total Replacement of LLC line (Unspecified)
system.caches.controllers5.xyzStatsObject.total_repl_owned            0                       # Total Replacement of owned line (Unspecified)
system.caches.controllers5.xyzStatsObject.total_repl_shared            0                       # Total Replacement of shared line (Unspecified)
system.caches.controllers5.xyzStatsObject.wt_putRatio          nan                       # WT / Put (Unspecified)
system.caches.controllers5.xyzStatsObject.wt_putmRatio          nan                       # PutM WT / PutM (Unspecified)
system.caches.controllers5.xyzStatsObject.wt_putsRatio          nan                       # PutS WT / PutS (Unspecified)
system.caches.controllers5.xyzStatsObjectlatency::samples        86045                       # Mem access latency (Unspecified)
system.caches.controllers5.xyzStatsObjectlatency::mean   108.756104                       # Mem access latency (Unspecified)
system.caches.controllers5.xyzStatsObjectlatency::stdev   127.872444                       # Mem access latency (Unspecified)
system.caches.controllers5.xyzStatsObjectlatency::underflows            0      0.00%      0.00% # Mem access latency (Unspecified)
system.caches.controllers5.xyzStatsObjectlatency::0-49999        86045    100.00%    100.00% # Mem access latency (Unspecified)
system.caches.controllers5.xyzStatsObjectlatency::50000-99999            0      0.00%    100.00% # Mem access latency (Unspecified)
system.caches.controllers5.xyzStatsObjectlatency::100000            0      0.00%    100.00% # Mem access latency (Unspecified)
system.caches.controllers5.xyzStatsObjectlatency::overflows            0      0.00%    100.00% # Mem access latency (Unspecified)
system.caches.controllers5.xyzStatsObjectlatency::min_value           15                       # Mem access latency (Unspecified)
system.caches.controllers5.xyzStatsObjectlatency::max_value          732                       # Mem access latency (Unspecified)
system.caches.controllers5.xyzStatsObjectlatency::total        86045                       # Mem access latency (Unspecified)
system.caches.controllers6.xyzStatsObject.total_put            0                       # Total number of put (PutM + PutS) (Unspecified)
system.caches.controllers6.xyzStatsObject.total_put_as_wt            0                       # Total number of put as write through (Unspecified)
system.caches.controllers6.xyzStatsObject.total_putm            0                       # Total number of PutM (Unspecified)
system.caches.controllers6.xyzStatsObject.total_putm_as_wt            0                       # Total number of PutM as write through (Unspecified)
system.caches.controllers6.xyzStatsObject.total_puts            0                       # Total number of PutS (Unspecified)
system.caches.controllers6.xyzStatsObject.total_puts_as_wt            0                       # Total number of PutS as write through (Unspecified)
system.caches.controllers6.xyzStatsObject.total_repl            0                       # Total Replacement (Unspecified)
system.caches.controllers6.xyzStatsObject.total_repl_llc            0                       # Total Replacement of LLC line (Unspecified)
system.caches.controllers6.xyzStatsObject.total_repl_owned            0                       # Total Replacement of owned line (Unspecified)
system.caches.controllers6.xyzStatsObject.total_repl_shared            0                       # Total Replacement of shared line (Unspecified)
system.caches.controllers6.xyzStatsObject.wt_putRatio          nan                       # WT / Put (Unspecified)
system.caches.controllers6.xyzStatsObject.wt_putmRatio          nan                       # PutM WT / PutM (Unspecified)
system.caches.controllers6.xyzStatsObject.wt_putsRatio          nan                       # PutS WT / PutS (Unspecified)
system.caches.controllers6.xyzStatsObjectlatency::samples        75759                       # Mem access latency (Unspecified)
system.caches.controllers6.xyzStatsObjectlatency::mean   113.125384                       # Mem access latency (Unspecified)
system.caches.controllers6.xyzStatsObjectlatency::stdev   133.288246                       # Mem access latency (Unspecified)
system.caches.controllers6.xyzStatsObjectlatency::underflows            0      0.00%      0.00% # Mem access latency (Unspecified)
system.caches.controllers6.xyzStatsObjectlatency::0-49999        75759    100.00%    100.00% # Mem access latency (Unspecified)
system.caches.controllers6.xyzStatsObjectlatency::50000-99999            0      0.00%    100.00% # Mem access latency (Unspecified)
system.caches.controllers6.xyzStatsObjectlatency::100000            0      0.00%    100.00% # Mem access latency (Unspecified)
system.caches.controllers6.xyzStatsObjectlatency::overflows            0      0.00%    100.00% # Mem access latency (Unspecified)
system.caches.controllers6.xyzStatsObjectlatency::min_value           15                       # Mem access latency (Unspecified)
system.caches.controllers6.xyzStatsObjectlatency::max_value          732                       # Mem access latency (Unspecified)
system.caches.controllers6.xyzStatsObjectlatency::total        75759                       # Mem access latency (Unspecified)
system.caches.controllers7.xyzStatsObject.total_put            0                       # Total number of put (PutM + PutS) (Unspecified)
system.caches.controllers7.xyzStatsObject.total_put_as_wt            0                       # Total number of put as write through (Unspecified)
system.caches.controllers7.xyzStatsObject.total_putm            0                       # Total number of PutM (Unspecified)
system.caches.controllers7.xyzStatsObject.total_putm_as_wt            0                       # Total number of PutM as write through (Unspecified)
system.caches.controllers7.xyzStatsObject.total_puts            0                       # Total number of PutS (Unspecified)
system.caches.controllers7.xyzStatsObject.total_puts_as_wt            0                       # Total number of PutS as write through (Unspecified)
system.caches.controllers7.xyzStatsObject.total_repl            0                       # Total Replacement (Unspecified)
system.caches.controllers7.xyzStatsObject.total_repl_llc            0                       # Total Replacement of LLC line (Unspecified)
system.caches.controllers7.xyzStatsObject.total_repl_owned            0                       # Total Replacement of owned line (Unspecified)
system.caches.controllers7.xyzStatsObject.total_repl_shared            0                       # Total Replacement of shared line (Unspecified)
system.caches.controllers7.xyzStatsObject.wt_putRatio          nan                       # WT / Put (Unspecified)
system.caches.controllers7.xyzStatsObject.wt_putmRatio          nan                       # PutM WT / PutM (Unspecified)
system.caches.controllers7.xyzStatsObject.wt_putsRatio          nan                       # PutS WT / PutS (Unspecified)
system.caches.controllers7.xyzStatsObjectlatency::samples        98201                       # Mem access latency (Unspecified)
system.caches.controllers7.xyzStatsObjectlatency::mean   111.250690                       # Mem access latency (Unspecified)
system.caches.controllers7.xyzStatsObjectlatency::stdev   130.007903                       # Mem access latency (Unspecified)
system.caches.controllers7.xyzStatsObjectlatency::underflows            0      0.00%      0.00% # Mem access latency (Unspecified)
system.caches.controllers7.xyzStatsObjectlatency::0-49999        98201    100.00%    100.00% # Mem access latency (Unspecified)
system.caches.controllers7.xyzStatsObjectlatency::50000-99999            0      0.00%    100.00% # Mem access latency (Unspecified)
system.caches.controllers7.xyzStatsObjectlatency::100000            0      0.00%    100.00% # Mem access latency (Unspecified)
system.caches.controllers7.xyzStatsObjectlatency::overflows            0      0.00%    100.00% # Mem access latency (Unspecified)
system.caches.controllers7.xyzStatsObjectlatency::min_value           15                       # Mem access latency (Unspecified)
system.caches.controllers7.xyzStatsObjectlatency::max_value          732                       # Mem access latency (Unspecified)
system.caches.controllers7.xyzStatsObjectlatency::total        98201                       # Mem access latency (Unspecified)
system.caches.controllers8.xyzStatsObject.total_put       307767                       # Total number of put (PutM + PutS) (Unspecified)
system.caches.controllers8.xyzStatsObject.total_put_as_wt       124601                       # Total number of put as write through (Unspecified)
system.caches.controllers8.xyzStatsObject.total_putm        99733                       # Total number of PutM (Unspecified)
system.caches.controllers8.xyzStatsObject.total_putm_as_wt        43710                       # Total number of PutM as write through (Unspecified)
system.caches.controllers8.xyzStatsObject.total_puts       208034                       # Total number of PutS (Unspecified)
system.caches.controllers8.xyzStatsObject.total_puts_as_wt        80891                       # Total number of PutS as write through (Unspecified)
system.caches.controllers8.xyzStatsObject.total_repl            0                       # Total Replacement (Unspecified)
system.caches.controllers8.xyzStatsObject.total_repl_llc            0                       # Total Replacement of LLC line (Unspecified)
system.caches.controllers8.xyzStatsObject.total_repl_owned            0                       # Total Replacement of owned line (Unspecified)
system.caches.controllers8.xyzStatsObject.total_repl_shared            0                       # Total Replacement of shared line (Unspecified)
system.caches.controllers8.xyzStatsObject.wt_putRatio     0.404855                       # WT / Put (Unspecified)
system.caches.controllers8.xyzStatsObject.wt_putmRatio     0.438270                       # PutM WT / PutM (Unspecified)
system.caches.controllers8.xyzStatsObject.wt_putsRatio     0.388835                       # PutS WT / PutS (Unspecified)
system.caches.controllers8.xyzStatsObjectlatency::samples            0                       # Mem access latency (Unspecified)
system.caches.controllers8.xyzStatsObjectlatency::mean          nan                       # Mem access latency (Unspecified)
system.caches.controllers8.xyzStatsObjectlatency::stdev          nan                       # Mem access latency (Unspecified)
system.caches.controllers8.xyzStatsObjectlatency::underflows            0                       # Mem access latency (Unspecified)
system.caches.controllers8.xyzStatsObjectlatency::0-49999            0                       # Mem access latency (Unspecified)
system.caches.controllers8.xyzStatsObjectlatency::50000-99999            0                       # Mem access latency (Unspecified)
system.caches.controllers8.xyzStatsObjectlatency::100000            0                       # Mem access latency (Unspecified)
system.caches.controllers8.xyzStatsObjectlatency::overflows            0                       # Mem access latency (Unspecified)
system.caches.controllers8.xyzStatsObjectlatency::min_value            0                       # Mem access latency (Unspecified)
system.caches.controllers8.xyzStatsObjectlatency::max_value            0                       # Mem access latency (Unspecified)
system.caches.controllers8.xyzStatsObjectlatency::total            0                       # Mem access latency (Unspecified)

---------- End Simulation Statistics   ----------
