
---------- Begin Simulation Statistics ----------
simSeconds                                   0.104893                       # Number of seconds simulated (Second)
simTicks                                 104892799000                       # Number of ticks simulated (Tick)
finalTick                                104892799000                       # Number of ticks from beginning of simulation (restored from checkpoints and never reset) (Tick)
simFreq                                  1000000000000                       # The number of ticks per simulated second ((Tick/Second))
hostSeconds                                     65.17                       # Real time elapsed on the host (Second)
hostTickRate                               1609479265                       # The number of ticks simulated per host second (ticks/s) ((Tick/Second))
hostMemory                                    4934384                       # Number of bytes of host memory used (Byte)
simInsts                                     59409526                       # Number of instructions simulated (Count)
simOps                                      116671780                       # Number of ops (including micro ops) simulated (Count)
hostInstRate                                   911568                       # Simulator instruction rate (inst/s) ((Count/Second))
hostOpRate                                    1790185                       # Simulator op (including micro ops) rate (op/s) ((Count/Second))
system.caches.m_outstandReqHistSeqr::bucket_size            1                       (Unspecified)
system.caches.m_outstandReqHistSeqr::max_bucket            9                       (Unspecified)
system.caches.m_outstandReqHistSeqr::samples     90487844                       (Unspecified)
system.caches.m_outstandReqHistSeqr::mean            1                       (Unspecified)
system.caches.m_outstandReqHistSeqr::gmean            1                       (Unspecified)
system.caches.m_outstandReqHistSeqr      |           0      0.00%      0.00% |    90487844    100.00%    100.00% |           0      0.00%    100.00% |           0      0.00%    100.00% |           0      0.00%    100.00% |           0      0.00%    100.00% |           0      0.00%    100.00% |           0      0.00%    100.00% |           0      0.00%    100.00% |           0      0.00%    100.00% (Unspecified)
system.caches.m_outstandReqHistSeqr::total     90487844                       (Unspecified)
system.caches.m_latencyHistSeqr::bucket_size          128                       (Unspecified)
system.caches.m_latencyHistSeqr::max_bucket         1279                       (Unspecified)
system.caches.m_latencyHistSeqr::samples     90487844                       (Unspecified)
system.caches.m_latencyHistSeqr::mean        1.803560                       (Unspecified)
system.caches.m_latencyHistSeqr::gmean       1.041406                       (Unspecified)
system.caches.m_latencyHistSeqr::stdev      14.880561                       (Unspecified)
system.caches.m_latencyHistSeqr          |    90294038     99.79%     99.79% |       88396      0.10%     99.88% |       70816      0.08%     99.96% |       21315      0.02%     99.99% |        8993      0.01%    100.00% |        3245      0.00%    100.00% |         881      0.00%    100.00% |         145      0.00%    100.00% |          15      0.00%    100.00% |           0      0.00%    100.00% (Unspecified)
system.caches.m_latencyHistSeqr::total       90487844                       (Unspecified)
system.caches.m_hitLatencyHistSeqr::bucket_size            1                       (Unspecified)
system.caches.m_hitLatencyHistSeqr::max_bucket            9                       (Unspecified)
system.caches.m_hitLatencyHistSeqr::samples     89369840                       (Unspecified)
system.caches.m_hitLatencyHistSeqr::mean            1                       (Unspecified)
system.caches.m_hitLatencyHistSeqr::gmean            1                       (Unspecified)
system.caches.m_hitLatencyHistSeqr       |           0      0.00%      0.00% |    89369840    100.00%    100.00% |           0      0.00%    100.00% |           0      0.00%    100.00% |           0      0.00%    100.00% |           0      0.00%    100.00% |           0      0.00%    100.00% |           0      0.00%    100.00% |           0      0.00%    100.00% |           0      0.00%    100.00% (Unspecified)
system.caches.m_hitLatencyHistSeqr::total     89369840                       (Unspecified)
system.caches.m_missLatencyHistSeqr::bucket_size          128                       (Unspecified)
system.caches.m_missLatencyHistSeqr::max_bucket         1279                       (Unspecified)
system.caches.m_missLatencyHistSeqr::samples      1118004                       (Unspecified)
system.caches.m_missLatencyHistSeqr::mean    66.037663                       (Unspecified)
system.caches.m_missLatencyHistSeqr::gmean    26.674878                       (Unspecified)
system.caches.m_missLatencyHistSeqr::stdev   117.236242                       (Unspecified)
system.caches.m_missLatencyHistSeqr      |      924198     82.66%     82.66% |       88396      7.91%     90.57% |       70816      6.33%     96.91% |       21315      1.91%     98.81% |        8993      0.80%     99.62% |        3245      0.29%     99.91% |         881      0.08%     99.99% |         145      0.01%    100.00% |          15      0.00%    100.00% |           0      0.00%    100.00% (Unspecified)
system.caches.m_missLatencyHistSeqr::total      1118004                       (Unspecified)
system.caches.L0Cache_Controller.Load    |     5137319     37.46%     37.46% |     2803678     20.44%     57.90% |     2464399     17.97%     75.87% |     3310216     24.13%    100.00% (Unspecified)
system.caches.L0Cache_Controller.Load::total     13715612                       (Unspecified)
system.caches.L0Cache_Controller.Ifetch  |    27917855     39.66%     39.66% |    13887742     19.73%     59.39% |    12209892     17.35%     76.73% |    16378732     23.27%    100.00% (Unspecified)
system.caches.L0Cache_Controller.Ifetch::total     70394221                       (Unspecified)
system.caches.L0Cache_Controller.Store   |     2219259     34.80%     34.80% |     1359532     21.32%     56.11% |     1195291     18.74%     74.85% |     1603929     25.15%    100.00% (Unspecified)
system.caches.L0Cache_Controller.Store::total      6378011                       (Unspecified)
system.caches.L0Cache_Controller.Replacement |      322432     34.02%     34.02% |      203558     21.48%     55.50% |      178997     18.89%     74.38% |      242815     25.62%    100.00% (Unspecified)
system.caches.L0Cache_Controller.Replacement::total       947802                       (Unspecified)
system.caches.L0Cache_Controller.Inv     |       82204     38.25%     38.25% |       44523     20.72%     58.96% |       38949     18.12%     77.08% |       49254     22.92%    100.00% (Unspecified)
system.caches.L0Cache_Controller.Inv::total       214930                       (Unspecified)
system.caches.L0Cache_Controller.Data    |      260195     37.43%     37.43% |      141856     20.41%     57.84% |      125041     17.99%     75.82% |      168077     24.18%    100.00% (Unspecified)
system.caches.L0Cache_Controller.Data::total       695169                       (Unspecified)
system.caches.L0Cache_Controller.ExData  |      114210     27.01%     27.01% |      101573     24.02%     51.03% |       88701     20.98%     72.01% |      118351     27.99%    100.00% (Unspecified)
system.caches.L0Cache_Controller.ExData::total       422835                       (Unspecified)
system.caches.L0Cache_Controller.I.Load  |      301339     31.40%     31.40% |      215523     22.46%     53.86% |      188817     19.68%     73.53% |      253994     26.47%    100.00% (Unspecified)
system.caches.L0Cache_Controller.I.Load::total       959673                       (Unspecified)
system.caches.L0Cache_Controller.I.Ifetch |       19353     48.19%     48.19% |        6808     16.95%     65.15% |        6301     15.69%     80.84% |        7694     19.16%    100.00% (Unspecified)
system.caches.L0Cache_Controller.I.Ifetch::total        40156                       (Unspecified)
system.caches.L0Cache_Controller.I.Store |       30203     96.87%     96.87% |         328      1.05%     97.92% |         363      1.16%     99.08% |         286      0.92%    100.00% (Unspecified)
system.caches.L0Cache_Controller.I.Store::total        31180                       (Unspecified)
system.caches.L0Cache_Controller.I.Inv   |       53801     40.77%     40.77% |       25480     19.31%     60.08% |       22522     17.07%     77.15% |       30154     22.85%    100.00% (Unspecified)
system.caches.L0Cache_Controller.I.Inv::total       131957                       (Unspecified)
system.caches.L0Cache_Controller.IS_D.Data |      206482     35.79%     35.79% |      120758     20.93%     56.71% |      106417     18.44%     75.16% |      143337     24.84%    100.00% (Unspecified)
system.caches.L0Cache_Controller.IS_D.Data::total       576994                       (Unspecified)
system.caches.L0Cache_Controller.IS_D.ExData |      114210     27.01%     27.01% |      101573     24.02%     51.03% |       88701     20.98%     72.01% |      118351     27.99%    100.00% (Unspecified)
system.caches.L0Cache_Controller.IS_D.ExData::total       422835                       (Unspecified)
system.caches.L0Cache_Controller.IM_D.Inv |           0      0.00%      0.00% |           0      0.00%      0.00% |           1    100.00%    100.00% |           0      0.00%    100.00% (Unspecified)
system.caches.L0Cache_Controller.IM_D.Inv::total            1                       (Unspecified)
system.caches.L0Cache_Controller.IM_D.Data |       53713     45.45%     45.45% |       21098     17.85%     63.31% |       18624     15.76%     79.06% |       24740     20.94%    100.00% (Unspecified)
system.caches.L0Cache_Controller.IM_D.Data::total       118175                       (Unspecified)
system.caches.L0Cache_Controller.S.Load  |     2350799     37.64%     37.64% |     1273533     20.39%     58.03% |     1118190     17.90%     75.94% |     1502859     24.06%    100.00% (Unspecified)
system.caches.L0Cache_Controller.S.Load::total      6245381                       (Unspecified)
system.caches.L0Cache_Controller.S.Ifetch |    27898502     39.65%     39.65% |    13880934     19.73%     59.38% |    12203591     17.35%     76.73% |    16371038     23.27%    100.00% (Unspecified)
system.caches.L0Cache_Controller.S.Ifetch::total     70354065                       (Unspecified)
system.caches.L0Cache_Controller.S.Store |       23510     27.02%     27.02% |       20770     23.87%     50.90% |       18261     20.99%     71.89% |       24454     28.11%    100.00% (Unspecified)
system.caches.L0Cache_Controller.S.Store::total        86995                       (Unspecified)
system.caches.L0Cache_Controller.S.Replacement |      163098     37.55%     37.55% |       88314     20.33%     57.88% |       77832     17.92%     75.80% |      105128     24.20%    100.00% (Unspecified)
system.caches.L0Cache_Controller.S.Replacement::total       434372                       (Unspecified)
system.caches.L0Cache_Controller.S.Inv   |       19827     35.75%     35.75% |       11632     20.98%     56.73% |       10282     18.54%     75.27% |       13712     24.73%    100.00% (Unspecified)
system.caches.L0Cache_Controller.S.Inv::total        55453                       (Unspecified)
system.caches.L0Cache_Controller.M.Load  |     2485181     38.17%     38.17% |     1314622     20.19%     58.36% |     1157392     17.78%     76.14% |     1553363     23.86%    100.00% (Unspecified)
system.caches.L0Cache_Controller.M.Load::total      6510558                       (Unspecified)
system.caches.L0Cache_Controller.M.Store |     2165546     34.59%     34.59% |     1338434     21.38%     55.98% |     1176667     18.80%     74.77% |     1579189     25.23%    100.00% (Unspecified)
system.caches.L0Cache_Controller.M.Store::total      6259836                       (Unspecified)
system.caches.L0Cache_Controller.M.Replacement |      159334     31.03%     31.03% |      115244     22.45%     53.48% |      101165     19.70%     73.18% |      137687     26.82%    100.00% (Unspecified)
system.caches.L0Cache_Controller.M.Replacement::total       513430                       (Unspecified)
system.caches.L0Cache_Controller.M.Inv   |        8576     31.16%     31.16% |        7411     26.93%     58.09% |        6144     22.33%     80.42% |        5388     19.58%    100.00% (Unspecified)
system.caches.L0Cache_Controller.M.Inv::total        27519                       (Unspecified)
system.caches.L1Cache_Controller.Load    |      320692     32.07%     32.07% |      222331     22.24%     54.31% |      195118     19.52%     73.83% |      261688     26.17%    100.00% (Unspecified)
system.caches.L1Cache_Controller.Load::total       999829                       (Unspecified)
system.caches.L1Cache_Controller.Store   |       53713     45.45%     45.45% |       21098     17.85%     63.31% |       18624     15.76%     79.06% |       24740     20.94%    100.00% (Unspecified)
system.caches.L1Cache_Controller.Store::total       118175                       (Unspecified)
system.caches.L1Cache_Controller.PutM    |      159334     31.03%     31.03% |      115244     22.45%     53.48% |      101165     19.70%     73.18% |      137687     26.82%    100.00% (Unspecified)
system.caches.L1Cache_Controller.PutM::total       513430                       (Unspecified)
system.caches.L1Cache_Controller.Replacement |      228118     38.48%     38.48% |      119206     20.11%     58.58% |      104910     17.69%     76.28% |      140664     23.72%    100.00% (Unspecified)
system.caches.L1Cache_Controller.Replacement::total       592898                       (Unspecified)
system.caches.L1Cache_Controller.FwdGetM |        9178     22.51%     22.51% |       12642     31.01%     53.52% |       10439     25.60%     79.12% |        8513     20.88%    100.00% (Unspecified)
system.caches.L1Cache_Controller.FwdGetM::total        40772                       (Unspecified)
system.caches.L1Cache_Controller.Inv     |           4     15.38%     15.38% |           8     30.77%     46.15% |           8     30.77%     76.92% |           6     23.08%    100.00% (Unspecified)
system.caches.L1Cache_Controller.Inv::total           26                       (Unspecified)
system.caches.L1Cache_Controller.PutAck  |      109429     38.12%     38.12% |       58021     20.21%     58.32% |       51118     17.80%     76.13% |       68532     23.87%    100.00% (Unspecified)
system.caches.L1Cache_Controller.PutAck::total       287100                       (Unspecified)
system.caches.L1Cache_Controller.DataDirNoAcks |      133223     35.55%     35.55% |       78917     21.06%     56.61% |       69560     18.56%     75.18% |       93008     24.82%    100.00% (Unspecified)
system.caches.L1Cache_Controller.DataDirNoAcks::total       374708                       (Unspecified)
system.caches.L1Cache_Controller.DataOwner |        4967     22.65%     22.65% |        6633     30.25%     52.90% |        5433     24.78%     77.67% |        4896     22.33%    100.00% (Unspecified)
system.caches.L1Cache_Controller.DataOwner::total        21929                       (Unspecified)
system.caches.L1Cache_Controller.InvAck  |          18     69.23%     69.23% |           3     11.54%     80.77% |           4     15.38%     96.15% |           1      3.85%    100.00% (Unspecified)
system.caches.L1Cache_Controller.InvAck::total           26                       (Unspecified)
system.caches.L1Cache_Controller.WB_Data |        8576     31.16%     31.16% |        7411     26.93%     58.09% |        6144     22.33%     80.42% |        5388     19.58%    100.00% (Unspecified)
system.caches.L1Cache_Controller.WB_Data::total        27519                       (Unspecified)
system.caches.L1Cache_Controller.I.Load  |      102132     34.48%     34.48% |       64487     21.77%     56.25% |       56424     19.05%     75.29% |       73194     24.71%    100.00% (Unspecified)
system.caches.L1Cache_Controller.I.Load::total       296237                       (Unspecified)
system.caches.L1Cache_Controller.I.Store |       12461     93.67%     93.67% |         288      2.16%     95.84% |         304      2.29%     98.12% |         250      1.88%    100.00% (Unspecified)
system.caches.L1Cache_Controller.I.Store::total        13303                       (Unspecified)
system.caches.L1Cache_Controller.IS_D.FwdGetM |          93     29.25%     29.25% |         106     33.33%     62.58% |          61     19.18%     81.76% |          58     18.24%    100.00% (Unspecified)
system.caches.L1Cache_Controller.IS_D.FwdGetM::total          318                       (Unspecified)
system.caches.L1Cache_Controller.IS_D.DataDirNoAcks |       97325     35.41%     35.41% |       57983     21.09%     56.50% |       51161     18.61%     75.11% |       68417     24.89%    100.00% (Unspecified)
system.caches.L1Cache_Controller.IS_D.DataDirNoAcks::total       274886                       (Unspecified)
system.caches.L1Cache_Controller.IS_D.DataOwner |        4807     22.51%     22.51% |        6504     30.46%     52.98% |        5263     24.65%     77.63% |        4777     22.37%    100.00% (Unspecified)
system.caches.L1Cache_Controller.IS_D.DataOwner::total        21351                       (Unspecified)
system.caches.L1Cache_Controller.IM_AD.FwdGetM |          12     32.43%     32.43% |           6     16.22%     48.65% |           9     24.32%     72.97% |          10     27.03%    100.00% (Unspecified)
system.caches.L1Cache_Controller.IM_AD.FwdGetM::total           37                       (Unspecified)
system.caches.L1Cache_Controller.IM_AD.DataDirNoAcks |       12301     96.67%     96.67% |         159      1.25%     97.92% |         134      1.05%     98.97% |         131      1.03%    100.00% (Unspecified)
system.caches.L1Cache_Controller.IM_AD.DataDirNoAcks::total        12725                       (Unspecified)
system.caches.L1Cache_Controller.IM_AD.DataOwner |         160     27.68%     27.68% |         129     22.32%     50.00% |         170     29.41%     79.41% |         119     20.59%    100.00% (Unspecified)
system.caches.L1Cache_Controller.IM_AD.DataOwner::total          578                       (Unspecified)
system.caches.L1Cache_Controller.IM_AD.InvAck |          13     86.67%     86.67% |           1      6.67%     93.33% |           1      6.67%    100.00% |           0      0.00%    100.00% (Unspecified)
system.caches.L1Cache_Controller.IM_AD.InvAck::total           15                       (Unspecified)
system.caches.L1Cache_Controller.S.Load  |      109157     36.13%     36.13% |       62775     20.78%     56.91% |       55256     18.29%     75.20% |       74920     24.80%    100.00% (Unspecified)
system.caches.L1Cache_Controller.S.Load::total       302108                       (Unspecified)
system.caches.L1Cache_Controller.S.Store |       23597     27.09%     27.09% |       20775     23.85%     50.95% |       18265     20.97%     71.92% |       24460     28.08%    100.00% (Unspecified)
system.caches.L1Cache_Controller.S.Store::total        87097                       (Unspecified)
system.caches.L1Cache_Controller.S.Replacement |       73618     39.29%     39.29% |       37103     19.80%     59.09% |       32792     17.50%     76.60% |       43853     23.40%    100.00% (Unspecified)
system.caches.L1Cache_Controller.S.Replacement::total       187366                       (Unspecified)
system.caches.L1Cache_Controller.S.Inv   |           4     15.38%     15.38% |           8     30.77%     46.15% |           8     30.77%     76.92% |           6     23.08%    100.00% (Unspecified)
system.caches.L1Cache_Controller.S.Inv::total           26                       (Unspecified)
system.caches.L1Cache_Controller.SM_AD.DataDirNoAcks |       23597     27.09%     27.09% |       20775     23.85%     50.95% |       18265     20.97%     71.92% |       24460     28.08%    100.00% (Unspecified)
system.caches.L1Cache_Controller.SM_AD.DataDirNoAcks::total        87097                       (Unspecified)
system.caches.L1Cache_Controller.SM_AD.InvAck |           5     45.45%     45.45% |           2     18.18%     63.64% |           3     27.27%     90.91% |           1      9.09%    100.00% (Unspecified)
system.caches.L1Cache_Controller.SM_AD.InvAck::total           11                       (Unspecified)
system.caches.L1Cache_Controller.M.Load  |      109403     27.25%     27.25% |       95069     23.68%     50.93% |       83438     20.78%     71.71% |      113574     28.29%    100.00% (Unspecified)
system.caches.L1Cache_Controller.M.Load::total       401484                       (Unspecified)
system.caches.L1Cache_Controller.M.Store |       17655     99.32%     99.32% |          35      0.20%     99.52% |          55      0.31%     99.83% |          30      0.17%    100.00% (Unspecified)
system.caches.L1Cache_Controller.M.Store::total        17775                       (Unspecified)
system.caches.L1Cache_Controller.M.Replacement |       35811     35.91%     35.91% |       20918     20.97%     56.88% |       18326     18.37%     75.26% |       24679     24.74%    100.00% (Unspecified)
system.caches.L1Cache_Controller.M.Replacement::total        99734                       (Unspecified)
system.caches.L1Cache_Controller.M.FwdGetM |        5032     22.95%     22.95% |        6627     30.22%     53.17% |        5484     25.01%     78.18% |        4785     21.82%    100.00% (Unspecified)
system.caches.L1Cache_Controller.M.FwdGetM::total        21928                       (Unspecified)
system.caches.L1Cache_Controller.M_P.PutM |      159328     31.03%     31.03% |      115243     22.45%     53.48% |      101161     19.70%     73.18% |      137680     26.82%    100.00% (Unspecified)
system.caches.L1Cache_Controller.M_P.PutM::total       513412                       (Unspecified)
system.caches.L1Cache_Controller.M_P.Replacement |        4563     50.02%     50.02% |        1528     16.75%     66.77% |        1279     14.02%     80.79% |        1752     19.21%    100.00% (Unspecified)
system.caches.L1Cache_Controller.M_P.Replacement::total         9122                       (Unspecified)
system.caches.L1Cache_Controller.M_P.FwdGetM |        4019     21.82%     21.82% |        5884     31.95%     53.78% |        4869     26.44%     80.22% |        3643     19.78%    100.00% (Unspecified)
system.caches.L1Cache_Controller.M_P.FwdGetM::total        18415                       (Unspecified)
system.caches.L1Cache_Controller.MP_D.PutM |           6     33.33%     33.33% |           1      5.56%     38.89% |           4     22.22%     61.11% |           7     38.89%    100.00% (Unspecified)
system.caches.L1Cache_Controller.MP_D.PutM::total           18                       (Unspecified)
system.caches.L1Cache_Controller.MP_D.Replacement |        4567     50.04%     50.04% |        1528     16.74%     66.78% |        1280     14.02%     80.80% |        1752     19.20%    100.00% (Unspecified)
system.caches.L1Cache_Controller.MP_D.Replacement::total         9127                       (Unspecified)
system.caches.L1Cache_Controller.MP_D.FwdGetM |          22     30.14%     30.14% |          19     26.03%     56.16% |          15     20.55%     76.71% |          17     23.29%    100.00% (Unspecified)
system.caches.L1Cache_Controller.MP_D.FwdGetM::total           73                       (Unspecified)
system.caches.L1Cache_Controller.MP_D.WB_Data |        8576     31.16%     31.16% |        7411     26.93%     58.09% |        6144     22.33%     80.42% |        5388     19.58%    100.00% (Unspecified)
system.caches.L1Cache_Controller.MP_D.WB_Data::total        27519                       (Unspecified)
system.caches.L1Cache_Controller.MI_A.Replacement |       35865     35.90%     35.90% |       20955     20.97%     56.87% |       18375     18.39%     75.26% |       24718     24.74%    100.00% (Unspecified)
system.caches.L1Cache_Controller.MI_A.Replacement::total        99913                       (Unspecified)
system.caches.L1Cache_Controller.MI_A.FwdGetM |           0      0.00%      0.00% |           0      0.00%      0.00% |           1    100.00%    100.00% |           0      0.00%    100.00% (Unspecified)
system.caches.L1Cache_Controller.MI_A.FwdGetM::total            1                       (Unspecified)
system.caches.L1Cache_Controller.MI_A.PutAck |       35811     35.91%     35.91% |       20918     20.97%     56.88% |       18325     18.37%     75.25% |       24679     24.75%    100.00% (Unspecified)
system.caches.L1Cache_Controller.MI_A.PutAck::total        99733                       (Unspecified)
system.caches.L1Cache_Controller.SI_A.Replacement |       73694     39.27%     39.27% |       37174     19.81%     59.09% |       32858     17.51%     76.60% |       43910     23.40%    100.00% (Unspecified)
system.caches.L1Cache_Controller.SI_A.Replacement::total       187636                       (Unspecified)
system.caches.L1Cache_Controller.SI_A.PutAck |       73618     39.29%     39.29% |       37103     19.80%     59.09% |       32792     17.50%     76.60% |       43853     23.40%    100.00% (Unspecified)
system.caches.L1Cache_Controller.SI_A.PutAck::total       187366                       (Unspecified)
system.caches.L1Cache_Controller.II_A.PutAck |           0      0.00%      0.00% |           0      0.00%      0.00% |           1    100.00%    100.00% |           0      0.00%    100.00% (Unspecified)
system.caches.L1Cache_Controller.II_A.PutAck::total            1                       (Unspecified)
system.caches.Directory_Controller.GetS        296237      0.00%      0.00% (Unspecified)
system.caches.Directory_Controller.GetM        100400      0.00%      0.00% (Unspecified)
system.caches.Directory_Controller.PutSNotLast        74332      0.00%      0.00% (Unspecified)
system.caches.Directory_Controller.PutSLast        53557      0.00%      0.00% (Unspecified)
system.caches.Directory_Controller.PutSLastWT        59477      0.00%      0.00% (Unspecified)
system.caches.Directory_Controller.PutMOwner        56434      0.00%      0.00% (Unspecified)
system.caches.Directory_Controller.PutMOwnerWT        43299      0.00%      0.00% (Unspecified)
system.caches.Directory_Controller.PutMNonOwner            1      0.00%      0.00% (Unspecified)
system.caches.Directory_Controller.Sync         20814      0.00%      0.00% (Unspecified)
system.caches.Directory_Controller.MemData       102482      0.00%      0.00% (Unspecified)
system.caches.Directory_Controller.LastMemAck       123590      0.00%      0.00% (Unspecified)
system.caches.Directory_Controller.I.GetS        91198      0.00%      0.00% (Unspecified)
system.caches.Directory_Controller.I.GetM        11284      0.00%      0.00% (Unspecified)
system.caches.Directory_Controller.S.GetS        74533      0.00%      0.00% (Unspecified)
system.caches.Directory_Controller.S.GetM        87106      0.00%      0.00% (Unspecified)
system.caches.Directory_Controller.S.PutSNotLast        74332      0.00%      0.00% (Unspecified)
system.caches.Directory_Controller.S.PutSLast        53557      0.00%      0.00% (Unspecified)
system.caches.Directory_Controller.S.PutSLastWT        59477      0.00%      0.00% (Unspecified)
system.caches.Directory_Controller.M.GetS        21351      0.00%      0.00% (Unspecified)
system.caches.Directory_Controller.M.GetM          578      0.00%      0.00% (Unspecified)
system.caches.Directory_Controller.M.PutMOwner        56434      0.00%      0.00% (Unspecified)
system.caches.Directory_Controller.M.PutMOwnerWT        43299      0.00%      0.00% (Unspecified)
system.caches.Directory_Controller.M.PutMNonOwner            1      0.00%      0.00% (Unspecified)
system.caches.Directory_Controller.LLCOnly.GetS       109155      0.00%      0.00% (Unspecified)
system.caches.Directory_Controller.LLCOnly.GetM         1432      0.00%      0.00% (Unspecified)
system.caches.Directory_Controller.LLCOnly.Sync        20814      0.00%      0.00% (Unspecified)
system.caches.Directory_Controller.LLCOnly_m.LastMemAck        80291      0.00%      0.00% (Unspecified)
system.caches.Directory_Controller.S_m.MemData        91198      0.00%      0.00% (Unspecified)
system.caches.Directory_Controller.M_m.MemData        11284      0.00%      0.00% (Unspecified)
system.caches.Directory_Controller.MI_m.LastMemAck        43299      0.00%      0.00% (Unspecified)
system.caches.RequestType.LD.latency_hist_seqr::bucket_size          128                       (Unspecified)
system.caches.RequestType.LD.latency_hist_seqr::max_bucket         1279                       (Unspecified)
system.caches.RequestType.LD.latency_hist_seqr::samples     13715612                       (Unspecified)
system.caches.RequestType.LD.latency_hist_seqr::mean     5.187284                       (Unspecified)
system.caches.RequestType.LD.latency_hist_seqr::gmean     1.248733                       (Unspecified)
system.caches.RequestType.LD.latency_hist_seqr::stdev    34.286370                       (Unspecified)
system.caches.RequestType.LD.latency_hist_seqr |    13567378     98.92%     98.92% |       63647      0.46%     99.38% |       52891      0.39%     99.77% |       19411      0.14%     99.91% |        8302      0.06%     99.97% |        2984      0.02%     99.99% |         843      0.01%    100.00% |         141      0.00%    100.00% |          15      0.00%    100.00% |           0      0.00%    100.00% (Unspecified)
system.caches.RequestType.LD.latency_hist_seqr::total     13715612                       (Unspecified)
system.caches.RequestType.LD.hit_latency_hist_seqr::bucket_size            1                       (Unspecified)
system.caches.RequestType.LD.hit_latency_hist_seqr::max_bucket            9                       (Unspecified)
system.caches.RequestType.LD.hit_latency_hist_seqr::samples     12755939                       (Unspecified)
system.caches.RequestType.LD.hit_latency_hist_seqr::mean            1                       (Unspecified)
system.caches.RequestType.LD.hit_latency_hist_seqr::gmean            1                       (Unspecified)
system.caches.RequestType.LD.hit_latency_hist_seqr |           0      0.00%      0.00% |    12755939    100.00%    100.00% |           0      0.00%    100.00% |           0      0.00%    100.00% |           0      0.00%    100.00% |           0      0.00%    100.00% |           0      0.00%    100.00% |           0      0.00%    100.00% |           0      0.00%    100.00% |           0      0.00%    100.00% (Unspecified)
system.caches.RequestType.LD.hit_latency_hist_seqr::total     12755939                       (Unspecified)
system.caches.RequestType.LD.miss_latency_hist_seqr::bucket_size          128                       (Unspecified)
system.caches.RequestType.LD.miss_latency_hist_seqr::max_bucket         1279                       (Unspecified)
system.caches.RequestType.LD.miss_latency_hist_seqr::samples       959673                       (Unspecified)
system.caches.RequestType.LD.miss_latency_hist_seqr::mean    60.844506                       (Unspecified)
system.caches.RequestType.LD.miss_latency_hist_seqr::gmean    23.918906                       (Unspecified)
system.caches.RequestType.LD.miss_latency_hist_seqr::stdev   116.061302                       (Unspecified)
system.caches.RequestType.LD.miss_latency_hist_seqr |      811439     84.55%     84.55% |       63647      6.63%     91.19% |       52891      5.51%     96.70% |       19411      2.02%     98.72% |        8302      0.87%     99.58% |        2984      0.31%     99.90% |         843      0.09%     99.98% |         141      0.01%    100.00% |          15      0.00%    100.00% |           0      0.00%    100.00% (Unspecified)
system.caches.RequestType.LD.miss_latency_hist_seqr::total       959673                       (Unspecified)
system.caches.RequestType.ST.latency_hist_seqr::bucket_size          128                       (Unspecified)
system.caches.RequestType.ST.latency_hist_seqr::max_bucket         1279                       (Unspecified)
system.caches.RequestType.ST.latency_hist_seqr::samples      6371534                       (Unspecified)
system.caches.RequestType.ST.latency_hist_seqr::mean     2.519806                       (Unspecified)
system.caches.RequestType.ST.latency_hist_seqr::gmean     1.072384                       (Unspecified)
system.caches.RequestType.ST.latency_hist_seqr::stdev    18.119449                       (Unspecified)
system.caches.RequestType.ST.latency_hist_seqr |     6341909     99.54%     99.54% |       16861      0.26%     99.80% |       12147      0.19%     99.99% |         569      0.01%    100.00% |          27      0.00%    100.00% |          18      0.00%    100.00% |           3      0.00%    100.00% |           0      0.00%    100.00% |           0      0.00%    100.00% |           0      0.00%    100.00% (Unspecified)
system.caches.RequestType.ST.latency_hist_seqr::total      6371534                       (Unspecified)
system.caches.RequestType.ST.hit_latency_hist_seqr::bucket_size            1                       (Unspecified)
system.caches.RequestType.ST.hit_latency_hist_seqr::max_bucket            9                       (Unspecified)
system.caches.RequestType.ST.hit_latency_hist_seqr::samples      6254540                       (Unspecified)
system.caches.RequestType.ST.hit_latency_hist_seqr::mean            1                       (Unspecified)
system.caches.RequestType.ST.hit_latency_hist_seqr::gmean            1                       (Unspecified)
system.caches.RequestType.ST.hit_latency_hist_seqr |           0      0.00%      0.00% |     6254540    100.00%    100.00% |           0      0.00%    100.00% |           0      0.00%    100.00% |           0      0.00%    100.00% |           0      0.00%    100.00% |           0      0.00%    100.00% |           0      0.00%    100.00% |           0      0.00%    100.00% |           0      0.00%    100.00% (Unspecified)
system.caches.RequestType.ST.hit_latency_hist_seqr::total      6254540                       (Unspecified)
system.caches.RequestType.ST.miss_latency_hist_seqr::bucket_size          128                       (Unspecified)
system.caches.RequestType.ST.miss_latency_hist_seqr::max_bucket         1279                       (Unspecified)
system.caches.RequestType.ST.miss_latency_hist_seqr::samples       116994                       (Unspecified)
system.caches.RequestType.ST.miss_latency_hist_seqr::mean    83.769159                       (Unspecified)
system.caches.RequestType.ST.miss_latency_hist_seqr::gmean    44.965680                       (Unspecified)
system.caches.RequestType.ST.miss_latency_hist_seqr::stdev   105.618513                       (Unspecified)
system.caches.RequestType.ST.miss_latency_hist_seqr |       87369     74.68%     74.68% |       16861     14.41%     89.09% |       12147     10.38%     99.47% |         569      0.49%     99.96% |          27      0.02%     99.98% |          18      0.02%    100.00% |           3      0.00%    100.00% |           0      0.00%    100.00% |           0      0.00%    100.00% |           0      0.00%    100.00% (Unspecified)
system.caches.RequestType.ST.miss_latency_hist_seqr::total       116994                       (Unspecified)
system.caches.RequestType.IFETCH.latency_hist_seqr::bucket_size          128                       (Unspecified)
system.caches.RequestType.IFETCH.latency_hist_seqr::max_bucket         1279                       (Unspecified)
system.caches.RequestType.IFETCH.latency_hist_seqr::samples     70394221                       (Unspecified)
system.caches.RequestType.IFETCH.latency_hist_seqr::mean     1.077732                       (Unspecified)
system.caches.RequestType.IFETCH.latency_hist_seqr::gmean     1.002482                       (Unspecified)
system.caches.RequestType.IFETCH.latency_hist_seqr::stdev     4.748227                       (Unspecified)
system.caches.RequestType.IFETCH.latency_hist_seqr |    70378588     99.98%     99.98% |        7733      0.01%     99.99% |        5691      0.01%    100.00% |        1303      0.00%    100.00% |         639      0.00%    100.00% |         229      0.00%    100.00% |          34      0.00%    100.00% |           4      0.00%    100.00% |           0      0.00%    100.00% |           0      0.00%    100.00% (Unspecified)
system.caches.RequestType.IFETCH.latency_hist_seqr::total     70394221                       (Unspecified)
system.caches.RequestType.IFETCH.hit_latency_hist_seqr::bucket_size            1                       (Unspecified)
system.caches.RequestType.IFETCH.hit_latency_hist_seqr::max_bucket            9                       (Unspecified)
system.caches.RequestType.IFETCH.hit_latency_hist_seqr::samples     70354065                       (Unspecified)
system.caches.RequestType.IFETCH.hit_latency_hist_seqr::mean            1                       (Unspecified)
system.caches.RequestType.IFETCH.hit_latency_hist_seqr::gmean            1                       (Unspecified)
system.caches.RequestType.IFETCH.hit_latency_hist_seqr |           0      0.00%      0.00% |    70354065    100.00%    100.00% |           0      0.00%    100.00% |           0      0.00%    100.00% |           0      0.00%    100.00% |           0      0.00%    100.00% |           0      0.00%    100.00% |           0      0.00%    100.00% |           0      0.00%    100.00% |           0      0.00%    100.00% (Unspecified)
system.caches.RequestType.IFETCH.hit_latency_hist_seqr::total     70354065                       (Unspecified)
system.caches.RequestType.IFETCH.miss_latency_hist_seqr::bucket_size          128                       (Unspecified)
system.caches.RequestType.IFETCH.miss_latency_hist_seqr::max_bucket         1279                       (Unspecified)
system.caches.RequestType.IFETCH.miss_latency_hist_seqr::samples        40156                       (Unspecified)
system.caches.RequestType.IFETCH.miss_latency_hist_seqr::mean   137.265141                       (Unspecified)
system.caches.RequestType.IFETCH.miss_latency_hist_seqr::gmean    77.186536                       (Unspecified)
system.caches.RequestType.IFETCH.miss_latency_hist_seqr::stdev   144.796021                       (Unspecified)
system.caches.RequestType.IFETCH.miss_latency_hist_seqr |       24523     61.07%     61.07% |        7733     19.26%     80.33% |        5691     14.17%     94.50% |        1303      3.24%     97.74% |         639      1.59%     99.34% |         229      0.57%     99.91% |          34      0.08%     99.99% |           4      0.01%    100.00% |           0      0.00%    100.00% |           0      0.00%    100.00% (Unspecified)
system.caches.RequestType.IFETCH.miss_latency_hist_seqr::total        40156                       (Unspecified)
system.caches.RequestType.RMW_Read.latency_hist_seqr::bucket_size           64                       (Unspecified)
system.caches.RequestType.RMW_Read.latency_hist_seqr::max_bucket          639                       (Unspecified)
system.caches.RequestType.RMW_Read.latency_hist_seqr::samples         2639                       (Unspecified)
system.caches.RequestType.RMW_Read.latency_hist_seqr::mean    14.562334                       (Unspecified)
system.caches.RequestType.RMW_Read.latency_hist_seqr::gmean     2.073606                       (Unspecified)
system.caches.RequestType.RMW_Read.latency_hist_seqr::stdev    49.485516                       (Unspecified)
system.caches.RequestType.RMW_Read.latency_hist_seqr |        2524     95.64%     95.64% |          21      0.80%     96.44% |          29      1.10%     97.54% |          20      0.76%     98.29% |          23      0.87%     99.17% |          21      0.80%     99.96% |           0      0.00%     99.96% |           0      0.00%     99.96% |           1      0.04%    100.00% |           0      0.00%    100.00% (Unspecified)
system.caches.RequestType.RMW_Read.latency_hist_seqr::total         2639                       (Unspecified)
system.caches.RequestType.RMW_Read.hit_latency_hist_seqr::bucket_size            1                       (Unspecified)
system.caches.RequestType.RMW_Read.hit_latency_hist_seqr::max_bucket            9                       (Unspecified)
system.caches.RequestType.RMW_Read.hit_latency_hist_seqr::samples         2108                       (Unspecified)
system.caches.RequestType.RMW_Read.hit_latency_hist_seqr::mean            1                       (Unspecified)
system.caches.RequestType.RMW_Read.hit_latency_hist_seqr::gmean            1                       (Unspecified)
system.caches.RequestType.RMW_Read.hit_latency_hist_seqr |           0      0.00%      0.00% |        2108    100.00%    100.00% |           0      0.00%    100.00% |           0      0.00%    100.00% |           0      0.00%    100.00% |           0      0.00%    100.00% |           0      0.00%    100.00% |           0      0.00%    100.00% |           0      0.00%    100.00% |           0      0.00%    100.00% (Unspecified)
system.caches.RequestType.RMW_Read.hit_latency_hist_seqr::total         2108                       (Unspecified)
system.caches.RequestType.RMW_Read.miss_latency_hist_seqr::bucket_size           64                       (Unspecified)
system.caches.RequestType.RMW_Read.miss_latency_hist_seqr::max_bucket          639                       (Unspecified)
system.caches.RequestType.RMW_Read.miss_latency_hist_seqr::samples          531                       (Unspecified)
system.caches.RequestType.RMW_Read.miss_latency_hist_seqr::mean    68.403013                       (Unspecified)
system.caches.RequestType.RMW_Read.miss_latency_hist_seqr::gmean    37.504830                       (Unspecified)
system.caches.RequestType.RMW_Read.miss_latency_hist_seqr::stdev    92.481163                       (Unspecified)
system.caches.RequestType.RMW_Read.miss_latency_hist_seqr |         416     78.34%     78.34% |          21      3.95%     82.30% |          29      5.46%     87.76% |          20      3.77%     91.53% |          23      4.33%     95.86% |          21      3.95%     99.81% |           0      0.00%     99.81% |           0      0.00%     99.81% |           1      0.19%    100.00% |           0      0.00%    100.00% (Unspecified)
system.caches.RequestType.RMW_Read.miss_latency_hist_seqr::total          531                       (Unspecified)
system.caches.RequestType.Locked_RMW_Read.latency_hist_seqr::bucket_size          128                       (Unspecified)
system.caches.RequestType.Locked_RMW_Read.latency_hist_seqr::max_bucket         1279                       (Unspecified)
system.caches.RequestType.Locked_RMW_Read.latency_hist_seqr::samples         1919                       (Unspecified)
system.caches.RequestType.Locked_RMW_Read.latency_hist_seqr::mean    47.931214                       (Unspecified)
system.caches.RequestType.Locked_RMW_Read.latency_hist_seqr::gmean     4.418524                       (Unspecified)
system.caches.RequestType.Locked_RMW_Read.latency_hist_seqr::stdev   116.539652                       (Unspecified)
system.caches.RequestType.Locked_RMW_Read.latency_hist_seqr |        1699     88.54%     88.54% |         106      5.52%     94.06% |          43      2.24%     96.30% |          32      1.67%     97.97% |          24      1.25%     99.22% |          14      0.73%     99.95% |           1      0.05%    100.00% |           0      0.00%    100.00% |           0      0.00%    100.00% |           0      0.00%    100.00% (Unspecified)
system.caches.RequestType.Locked_RMW_Read.latency_hist_seqr::total         1919                       (Unspecified)
system.caches.RequestType.Locked_RMW_Read.hit_latency_hist_seqr::bucket_size            1                       (Unspecified)
system.caches.RequestType.Locked_RMW_Read.hit_latency_hist_seqr::max_bucket            9                       (Unspecified)
system.caches.RequestType.Locked_RMW_Read.hit_latency_hist_seqr::samples         1269                       (Unspecified)
system.caches.RequestType.Locked_RMW_Read.hit_latency_hist_seqr::mean            1                       (Unspecified)
system.caches.RequestType.Locked_RMW_Read.hit_latency_hist_seqr::gmean            1                       (Unspecified)
system.caches.RequestType.Locked_RMW_Read.hit_latency_hist_seqr |           0      0.00%      0.00% |        1269    100.00%    100.00% |           0      0.00%    100.00% |           0      0.00%    100.00% |           0      0.00%    100.00% |           0      0.00%    100.00% |           0      0.00%    100.00% |           0      0.00%    100.00% |           0      0.00%    100.00% |           0      0.00%    100.00% (Unspecified)
system.caches.RequestType.Locked_RMW_Read.hit_latency_hist_seqr::total         1269                       (Unspecified)
system.caches.RequestType.Locked_RMW_Read.miss_latency_hist_seqr::bucket_size          128                       (Unspecified)
system.caches.RequestType.Locked_RMW_Read.miss_latency_hist_seqr::max_bucket         1279                       (Unspecified)
system.caches.RequestType.Locked_RMW_Read.miss_latency_hist_seqr::samples          650                       (Unspecified)
system.caches.RequestType.Locked_RMW_Read.miss_latency_hist_seqr::mean   139.555385                       (Unspecified)
system.caches.RequestType.Locked_RMW_Read.miss_latency_hist_seqr::gmean    80.363139                       (Unspecified)
system.caches.RequestType.Locked_RMW_Read.miss_latency_hist_seqr::stdev   165.598948                       (Unspecified)
system.caches.RequestType.Locked_RMW_Read.miss_latency_hist_seqr |         430     66.15%     66.15% |         106     16.31%     82.46% |          43      6.62%     89.08% |          32      4.92%     94.00% |          24      3.69%     97.69% |          14      2.15%     99.85% |           1      0.15%    100.00% |           0      0.00%    100.00% |           0      0.00%    100.00% |           0      0.00%    100.00% (Unspecified)
system.caches.RequestType.Locked_RMW_Read.miss_latency_hist_seqr::total          650                       (Unspecified)
system.caches.RequestType.Locked_RMW_Write.latency_hist_seqr::bucket_size            1                       (Unspecified)
system.caches.RequestType.Locked_RMW_Write.latency_hist_seqr::max_bucket            9                       (Unspecified)
system.caches.RequestType.Locked_RMW_Write.latency_hist_seqr::samples         1919                       (Unspecified)
system.caches.RequestType.Locked_RMW_Write.latency_hist_seqr::mean            1                       (Unspecified)
system.caches.RequestType.Locked_RMW_Write.latency_hist_seqr::gmean            1                       (Unspecified)
system.caches.RequestType.Locked_RMW_Write.latency_hist_seqr |           0      0.00%      0.00% |        1919    100.00%    100.00% |           0      0.00%    100.00% |           0      0.00%    100.00% |           0      0.00%    100.00% |           0      0.00%    100.00% |           0      0.00%    100.00% |           0      0.00%    100.00% |           0      0.00%    100.00% |           0      0.00%    100.00% (Unspecified)
system.caches.RequestType.Locked_RMW_Write.latency_hist_seqr::total         1919                       (Unspecified)
system.caches.RequestType.Locked_RMW_Write.hit_latency_hist_seqr::bucket_size            1                       (Unspecified)
system.caches.RequestType.Locked_RMW_Write.hit_latency_hist_seqr::max_bucket            9                       (Unspecified)
system.caches.RequestType.Locked_RMW_Write.hit_latency_hist_seqr::samples         1919                       (Unspecified)
system.caches.RequestType.Locked_RMW_Write.hit_latency_hist_seqr::mean            1                       (Unspecified)
system.caches.RequestType.Locked_RMW_Write.hit_latency_hist_seqr::gmean            1                       (Unspecified)
system.caches.RequestType.Locked_RMW_Write.hit_latency_hist_seqr |           0      0.00%      0.00% |        1919    100.00%    100.00% |           0      0.00%    100.00% |           0      0.00%    100.00% |           0      0.00%    100.00% |           0      0.00%    100.00% |           0      0.00%    100.00% |           0      0.00%    100.00% |           0      0.00%    100.00% |           0      0.00%    100.00% (Unspecified)
system.caches.RequestType.Locked_RMW_Write.hit_latency_hist_seqr::total         1919                       (Unspecified)
system.caches.controllers0.DCache.m_demand_hits            0                       # Number of cache demand hits (Unspecified)
system.caches.controllers0.DCache.m_demand_misses            0                       # Number of cache demand misses (Unspecified)
system.caches.controllers0.DCache.m_demand_accesses            0                       # Number of cache demand accesses (Unspecified)
system.caches.controllers0.ICache.m_demand_hits            0                       # Number of cache demand hits (Unspecified)
system.caches.controllers0.ICache.m_demand_misses            0                       # Number of cache demand misses (Unspecified)
system.caches.controllers0.ICache.m_demand_accesses            0                       # Number of cache demand accesses (Unspecified)
system.caches.controllers0.forwardFromL1.m_buf_msgs     1.187790                       # Average number of messages in buffer (Unspecified)
system.caches.controllers0.forwardFromL1.m_stall_time  5001.234632                       # Average number of cycles messages are stalled in this MB (Unspecified)
system.caches.controllers0.mandatoryQueue.m_buf_msgs     0.336290                       # Average number of messages in buffer (Unspecified)
system.caches.controllers0.mandatoryQueue.m_stall_time   999.999990                       # Average number of cycles messages are stalled in this MB (Unspecified)
system.caches.controllers0.power_state.pwrStateResidencyTicks::UNDEFINED 104892799000                       # Cumulative time (in ticks) in various power states (Tick)
system.caches.controllers0.requestToL1.m_buf_msgs     0.005088                       # Average number of messages in buffer (Unspecified)
system.caches.controllers0.requestToL1.m_stall_time   999.999981                       # Average number of cycles messages are stalled in this MB (Unspecified)
system.caches.controllers0.responseFromL1.m_buf_msgs     0.003569                       # Average number of messages in buffer (Unspecified)
system.caches.controllers0.responseFromL1.m_stall_time  4999.993756                       # Average number of cycles messages are stalled in this MB (Unspecified)
system.caches.controllers0.responseToL1.m_buf_msgs     0.000082                       # Average number of messages in buffer (Unspecified)
system.caches.controllers0.responseToL1.m_stall_time   999.847730                       # Average number of cycles messages are stalled in this MB (Unspecified)
system.caches.controllers0.xyzStatsObject.power_state.pwrStateResidencyTicks::UNDEFINED 104892799000                       # Cumulative time (in ticks) in various power states (Tick)
system.caches.controllers1.DCache.m_demand_hits            0                       # Number of cache demand hits (Unspecified)
system.caches.controllers1.DCache.m_demand_misses            0                       # Number of cache demand misses (Unspecified)
system.caches.controllers1.DCache.m_demand_accesses            0                       # Number of cache demand accesses (Unspecified)
system.caches.controllers1.ICache.m_demand_hits            0                       # Number of cache demand hits (Unspecified)
system.caches.controllers1.ICache.m_demand_misses            0                       # Number of cache demand misses (Unspecified)
system.caches.controllers1.ICache.m_demand_accesses            0                       # Number of cache demand accesses (Unspecified)
system.caches.controllers1.forwardFromL1.m_buf_msgs     2.104881                       # Average number of messages in buffer (Unspecified)
system.caches.controllers1.forwardFromL1.m_stall_time  2880.528319                       # Average number of cycles messages are stalled in this MB (Unspecified)
system.caches.controllers1.mandatoryQueue.m_buf_msgs     0.172090                       # Average number of messages in buffer (Unspecified)
system.caches.controllers1.mandatoryQueue.m_stall_time   575.978538                       # Average number of cycles messages are stalled in this MB (Unspecified)
system.caches.controllers1.power_state.pwrStateResidencyTicks::UNDEFINED 104892799000                       # Cumulative time (in ticks) in various power states (Tick)
system.caches.controllers1.requestToL1.m_buf_msgs     0.003419                       # Average number of messages in buffer (Unspecified)
system.caches.controllers1.requestToL1.m_stall_time   575.978528                       # Average number of cycles messages are stalled in this MB (Unspecified)
system.caches.controllers1.responseFromL1.m_buf_msgs     0.002321                       # Average number of messages in buffer (Unspecified)
system.caches.controllers1.responseFromL1.m_stall_time  2879.891355                       # Average number of cycles messages are stalled in this MB (Unspecified)
system.caches.controllers1.responseToL1.m_buf_msgs     0.000071                       # Average number of messages in buffer (Unspecified)
system.caches.controllers1.responseToL1.m_stall_time   575.627942                       # Average number of cycles messages are stalled in this MB (Unspecified)
system.caches.controllers1.xyzStatsObject.power_state.pwrStateResidencyTicks::UNDEFINED 104892799000                       # Cumulative time (in ticks) in various power states (Tick)
system.caches.controllers2.DCache.m_demand_hits            0                       # Number of cache demand hits (Unspecified)
system.caches.controllers2.DCache.m_demand_misses            0                       # Number of cache demand misses (Unspecified)
system.caches.controllers2.DCache.m_demand_accesses            0                       # Number of cache demand accesses (Unspecified)
system.caches.controllers2.ICache.m_demand_hits            0                       # Number of cache demand hits (Unspecified)
system.caches.controllers2.ICache.m_demand_misses            0                       # Number of cache demand misses (Unspecified)
system.caches.controllers2.ICache.m_demand_accesses            0                       # Number of cache demand accesses (Unspecified)
system.caches.controllers2.forwardFromL1.m_buf_msgs     1.996785                       # Average number of messages in buffer (Unspecified)
system.caches.controllers2.forwardFromL1.m_stall_time  2877.913488                       # Average number of cycles messages are stalled in this MB (Unspecified)
system.caches.controllers2.forwardFromL1.m_stall_count            1                       # Number of times messages were stalled (Unspecified)
system.caches.controllers2.mandatoryQueue.m_buf_msgs     0.151293                       # Average number of messages in buffer (Unspecified)
system.caches.controllers2.mandatoryQueue.m_stall_time   575.459913                       # Average number of cycles messages are stalled in this MB (Unspecified)
system.caches.controllers2.power_state.pwrStateResidencyTicks::UNDEFINED 104892799000                       # Cumulative time (in ticks) in various power states (Tick)
system.caches.controllers2.requestToL1.m_buf_msgs     0.003002                       # Average number of messages in buffer (Unspecified)
system.caches.controllers2.requestToL1.m_stall_time   575.459904                       # Average number of cycles messages are stalled in this MB (Unspecified)
system.caches.controllers2.responseFromL1.m_buf_msgs     0.002038                       # Average number of messages in buffer (Unspecified)
system.caches.controllers2.responseFromL1.m_stall_time  2877.293846                       # Average number of cycles messages are stalled in this MB (Unspecified)
system.caches.controllers2.responseToL1.m_buf_msgs     0.000059                       # Average number of messages in buffer (Unspecified)
system.caches.controllers2.responseToL1.m_stall_time   575.366094                       # Average number of cycles messages are stalled in this MB (Unspecified)
system.caches.controllers2.xyzStatsObject.power_state.pwrStateResidencyTicks::UNDEFINED 104892799000                       # Cumulative time (in ticks) in various power states (Tick)
system.caches.controllers3.DCache.m_demand_hits            0                       # Number of cache demand hits (Unspecified)
system.caches.controllers3.DCache.m_demand_misses            0                       # Number of cache demand misses (Unspecified)
system.caches.controllers3.DCache.m_demand_accesses            0                       # Number of cache demand accesses (Unspecified)
system.caches.controllers3.ICache.m_demand_hits            0                       # Number of cache demand hits (Unspecified)
system.caches.controllers3.ICache.m_demand_misses            0                       # Number of cache demand misses (Unspecified)
system.caches.controllers3.ICache.m_demand_accesses            0                       # Number of cache demand accesses (Unspecified)
system.caches.controllers3.forwardFromL1.m_buf_msgs     0.958876                       # Average number of messages in buffer (Unspecified)
system.caches.controllers3.forwardFromL1.m_stall_time  2874.914550                       # Average number of cycles messages are stalled in this MB (Unspecified)
system.caches.controllers3.mandatoryQueue.m_buf_msgs     0.202997                       # Average number of messages in buffer (Unspecified)
system.caches.controllers3.mandatoryQueue.m_stall_time   574.889731                       # Average number of cycles messages are stalled in this MB (Unspecified)
system.caches.controllers3.power_state.pwrStateResidencyTicks::UNDEFINED 104892799000                       # Cumulative time (in ticks) in various power states (Tick)
system.caches.controllers3.requestToL1.m_buf_msgs     0.004043                       # Average number of messages in buffer (Unspecified)
system.caches.controllers3.requestToL1.m_stall_time   574.889721                       # Average number of cycles messages are stalled in this MB (Unspecified)
system.caches.controllers3.responseFromL1.m_buf_msgs     0.002731                       # Average number of messages in buffer (Unspecified)
system.caches.controllers3.responseFromL1.m_stall_time  2874.436929                       # Average number of cycles messages are stalled in this MB (Unspecified)
system.caches.controllers3.responseToL1.m_buf_msgs     0.000051                       # Average number of messages in buffer (Unspecified)
system.caches.controllers3.responseToL1.m_stall_time   574.798438                       # Average number of cycles messages are stalled in this MB (Unspecified)
system.caches.controllers3.xyzStatsObject.power_state.pwrStateResidencyTicks::UNDEFINED 104892799000                       # Cumulative time (in ticks) in various power states (Tick)
system.caches.controllers4.cacheMemory.m_demand_hits            0                       # Number of cache demand hits (Unspecified)
system.caches.controllers4.cacheMemory.m_demand_misses            0                       # Number of cache demand misses (Unspecified)
system.caches.controllers4.cacheMemory.m_demand_accesses            0                       # Number of cache demand accesses (Unspecified)
system.caches.controllers4.forwardFromDir.m_buf_msgs     0.001484                       # Average number of messages in buffer (Unspecified)
system.caches.controllers4.forwardFromDir.m_stall_time  5527.730288                       # Average number of cycles messages are stalled in this MB (Unspecified)
system.caches.controllers4.forwardFromDir.m_stall_count         4146                       # Number of times messages were stalled (Unspecified)
system.caches.controllers4.forwardToL0.m_buf_msgs     0.000784                       # Average number of messages in buffer (Unspecified)
system.caches.controllers4.forwardToL0.m_stall_time   999.913102                       # Average number of cycles messages are stalled in this MB (Unspecified)
system.caches.controllers4.power_state.pwrStateResidencyTicks::UNDEFINED 104892799000                       # Cumulative time (in ticks) in various power states (Tick)
system.caches.controllers4.requestFromL0.m_buf_msgs     0.031962                       # Average number of messages in buffer (Unspecified)
system.caches.controllers4.requestFromL0.m_stall_time 16340.543911                       # Average number of cycles messages are stalled in this MB (Unspecified)
system.caches.controllers4.requestFromL0.m_stall_count       114126                       # Number of times messages were stalled (Unspecified)
system.caches.controllers4.requestToDir.m_buf_msgs     0.002361                       # Average number of messages in buffer (Unspecified)
system.caches.controllers4.requestToDir.m_stall_time   999.999933                       # Average number of cycles messages are stalled in this MB (Unspecified)
system.caches.controllers4.responseFromDirOrSibling.m_buf_msgs     0.001318                       # Average number of messages in buffer (Unspecified)
system.caches.controllers4.responseFromDirOrSibling.m_stall_time 12774.444707                       # Average number of cycles messages are stalled in this MB (Unspecified)
system.caches.controllers4.responseFromL0.m_buf_msgs     0.000082                       # Average number of messages in buffer (Unspecified)
system.caches.controllers4.responseFromL0.m_stall_time  4999.264401                       # Average number of cycles messages are stalled in this MB (Unspecified)
system.caches.controllers4.responseToDirOrSibling.m_buf_msgs     0.000048                       # Average number of messages in buffer (Unspecified)
system.caches.controllers4.responseToDirOrSibling.m_stall_time   575.977127                       # Average number of cycles messages are stalled in this MB (Unspecified)
system.caches.controllers4.responseToL0.m_buf_msgs     0.003569                       # Average number of messages in buffer (Unspecified)
system.caches.controllers4.responseToL0.m_stall_time   999.998789                       # Average number of cycles messages are stalled in this MB (Unspecified)
system.caches.controllers4.xyzStatsObject.power_state.pwrStateResidencyTicks::UNDEFINED 104892799000                       # Cumulative time (in ticks) in various power states (Tick)
system.caches.controllers5.cacheMemory.m_demand_hits            0                       # Number of cache demand hits (Unspecified)
system.caches.controllers5.cacheMemory.m_demand_misses            0                       # Number of cache demand misses (Unspecified)
system.caches.controllers5.cacheMemory.m_demand_accesses            0                       # Number of cache demand accesses (Unspecified)
system.caches.controllers5.forwardFromDir.m_buf_msgs     0.001187                       # Average number of messages in buffer (Unspecified)
system.caches.controllers5.forwardFromDir.m_stall_time  3949.149703                       # Average number of cycles messages are stalled in this MB (Unspecified)
system.caches.controllers5.forwardFromDir.m_stall_count         6015                       # Number of times messages were stalled (Unspecified)
system.caches.controllers5.forwardToL0.m_buf_msgs     0.000424                       # Average number of messages in buffer (Unspecified)
system.caches.controllers5.forwardToL0.m_stall_time   575.872086                       # Average number of cycles messages are stalled in this MB (Unspecified)
system.caches.controllers5.power_state.pwrStateResidencyTicks::UNDEFINED 104892799000                       # Cumulative time (in ticks) in various power states (Tick)
system.caches.controllers5.requestFromL0.m_buf_msgs     0.024630                       # Average number of messages in buffer (Unspecified)
system.caches.controllers5.requestFromL0.m_stall_time  9451.442134                       # Average number of cycles messages are stalled in this MB (Unspecified)
system.caches.controllers5.requestFromL0.m_stall_count        59657                       # Number of times messages were stalled (Unspecified)
system.caches.controllers5.requestToDir.m_buf_msgs     0.001369                       # Average number of messages in buffer (Unspecified)
system.caches.controllers5.requestToDir.m_stall_time   575.978481                       # Average number of cycles messages are stalled in this MB (Unspecified)
system.caches.controllers5.responseFromDirOrSibling.m_buf_msgs     0.000816                       # Average number of messages in buffer (Unspecified)
system.caches.controllers5.responseFromDirOrSibling.m_stall_time  7261.473440                       # Average number of cycles messages are stalled in this MB (Unspecified)
system.caches.controllers5.responseFromL0.m_buf_msgs     0.000071                       # Average number of messages in buffer (Unspecified)
system.caches.controllers5.responseFromL0.m_stall_time  2878.144581                       # Average number of cycles messages are stalled in this MB (Unspecified)
system.caches.controllers5.responseToDirOrSibling.m_buf_msgs     0.000063                       # Average number of messages in buffer (Unspecified)
system.caches.controllers5.responseToDirOrSibling.m_stall_time   575.408708                       # Average number of cycles messages are stalled in this MB (Unspecified)
system.caches.controllers5.responseToL0.m_buf_msgs     0.002321                       # Average number of messages in buffer (Unspecified)
system.caches.controllers5.responseToL0.m_stall_time   575.978309                       # Average number of cycles messages are stalled in this MB (Unspecified)
system.caches.controllers5.xyzStatsObject.power_state.pwrStateResidencyTicks::UNDEFINED 104892799000                       # Cumulative time (in ticks) in various power states (Tick)
system.caches.controllers6.cacheMemory.m_demand_hits            0                       # Number of cache demand hits (Unspecified)
system.caches.controllers6.cacheMemory.m_demand_misses            0                       # Number of cache demand misses (Unspecified)
system.caches.controllers6.cacheMemory.m_demand_accesses            0                       # Number of cache demand accesses (Unspecified)
system.caches.controllers6.forwardFromDir.m_buf_msgs     0.001010                       # Average number of messages in buffer (Unspecified)
system.caches.controllers6.forwardFromDir.m_stall_time  3293.635543                       # Average number of cycles messages are stalled in this MB (Unspecified)
system.caches.controllers6.forwardFromDir.m_stall_count         4954                       # Number of times messages were stalled (Unspecified)
system.caches.controllers6.forwardToL0.m_buf_msgs     0.000371                       # Average number of messages in buffer (Unspecified)
system.caches.controllers6.forwardToL0.m_stall_time   575.366141                       # Average number of cycles messages are stalled in this MB (Unspecified)
system.caches.controllers6.power_state.pwrStateResidencyTicks::UNDEFINED 104892799000                       # Cumulative time (in ticks) in various power states (Tick)
system.caches.controllers6.requestFromL0.m_buf_msgs     0.023393                       # Average number of messages in buffer (Unspecified)
system.caches.controllers6.requestFromL0.m_stall_time  9231.156955                       # Average number of cycles messages are stalled in this MB (Unspecified)
system.caches.controllers6.requestFromL0.m_stall_count        52513                       # Number of times messages were stalled (Unspecified)
system.caches.controllers6.requestToDir.m_buf_msgs     0.001202                       # Average number of messages in buffer (Unspecified)
system.caches.controllers6.requestToDir.m_stall_time   575.459856                       # Average number of cycles messages are stalled in this MB (Unspecified)
system.caches.controllers6.responseFromDirOrSibling.m_buf_msgs     0.000715                       # Average number of messages in buffer (Unspecified)
system.caches.controllers6.responseFromDirOrSibling.m_stall_time  7268.027065                       # Average number of cycles messages are stalled in this MB (Unspecified)
system.caches.controllers6.responseFromL0.m_buf_msgs     0.000059                       # Average number of messages in buffer (Unspecified)
system.caches.controllers6.responseFromL0.m_stall_time  2876.831135                       # Average number of cycles messages are stalled in this MB (Unspecified)
system.caches.controllers6.responseToDirOrSibling.m_buf_msgs     0.000052                       # Average number of messages in buffer (Unspecified)
system.caches.controllers6.responseToDirOrSibling.m_stall_time   575.340544                       # Average number of cycles messages are stalled in this MB (Unspecified)
system.caches.controllers6.responseToL0.m_buf_msgs     0.002038                       # Average number of messages in buffer (Unspecified)
system.caches.controllers6.responseToL0.m_stall_time   575.458807                       # Average number of cycles messages are stalled in this MB (Unspecified)
system.caches.controllers6.xyzStatsObject.power_state.pwrStateResidencyTicks::UNDEFINED 104892799000                       # Cumulative time (in ticks) in various power states (Tick)
system.caches.controllers7.cacheMemory.m_demand_hits            0                       # Number of cache demand hits (Unspecified)
system.caches.controllers7.cacheMemory.m_demand_misses            0                       # Number of cache demand misses (Unspecified)
system.caches.controllers7.cacheMemory.m_demand_accesses            0                       # Number of cache demand accesses (Unspecified)
system.caches.controllers7.forwardFromDir.m_buf_msgs     0.001052                       # Average number of messages in buffer (Unspecified)
system.caches.controllers7.forwardFromDir.m_stall_time  3071.047260                       # Average number of cycles messages are stalled in this MB (Unspecified)
system.caches.controllers7.forwardFromDir.m_stall_count         3728                       # Number of times messages were stalled (Unspecified)
system.caches.controllers7.forwardToL0.m_buf_msgs     0.000470                       # Average number of messages in buffer (Unspecified)
system.caches.controllers7.forwardToL0.m_stall_time   574.798485                       # Average number of cycles messages are stalled in this MB (Unspecified)
system.caches.controllers7.power_state.pwrStateResidencyTicks::UNDEFINED 104892799000                       # Cumulative time (in ticks) in various power states (Tick)
system.caches.controllers7.requestFromL0.m_buf_msgs     0.027780                       # Average number of messages in buffer (Unspecified)
system.caches.controllers7.requestFromL0.m_stall_time 10180.061855                       # Average number of cycles messages are stalled in this MB (Unspecified)
system.caches.controllers7.requestFromL0.m_stall_count        70380                       # Number of times messages were stalled (Unspecified)
system.caches.controllers7.requestToDir.m_buf_msgs     0.001587                       # Average number of messages in buffer (Unspecified)
system.caches.controllers7.requestToDir.m_stall_time   574.889674                       # Average number of cycles messages are stalled in this MB (Unspecified)
system.caches.controllers7.responseFromDirOrSibling.m_buf_msgs     0.000933                       # Average number of messages in buffer (Unspecified)
system.caches.controllers7.responseFromDirOrSibling.m_stall_time  7258.313090                       # Average number of cycles messages are stalled in this MB (Unspecified)
system.caches.controllers7.responseFromL0.m_buf_msgs     0.000051                       # Average number of messages in buffer (Unspecified)
system.caches.controllers7.responseFromL0.m_stall_time  2874.002352                       # Average number of cycles messages are stalled in this MB (Unspecified)
system.caches.controllers7.responseToDirOrSibling.m_buf_msgs     0.000046                       # Average number of messages in buffer (Unspecified)
system.caches.controllers7.responseToDirOrSibling.m_stall_time   574.787474                       # Average number of cycles messages are stalled in this MB (Unspecified)
system.caches.controllers7.responseToL0.m_buf_msgs     0.002731                       # Average number of messages in buffer (Unspecified)
system.caches.controllers7.responseToL0.m_stall_time   574.887424                       # Average number of cycles messages are stalled in this MB (Unspecified)
system.caches.controllers7.xyzStatsObject.power_state.pwrStateResidencyTicks::UNDEFINED 104892799000                       # Cumulative time (in ticks) in various power states (Tick)
system.caches.controllers8.cacheMemory.m_demand_hits            0                       # Number of cache demand hits (Unspecified)
system.caches.controllers8.cacheMemory.m_demand_misses            0                       # Number of cache demand misses (Unspecified)
system.caches.controllers8.cacheMemory.m_demand_accesses            0                       # Number of cache demand accesses (Unspecified)
system.caches.controllers8.forwardToCache.m_buf_msgs     0.003777                       # Average number of messages in buffer (Unspecified)
system.caches.controllers8.forwardToCache.m_stall_time   999.959997                       # Average number of cycles messages are stalled in this MB (Unspecified)
system.caches.controllers8.power_state.pwrStateResidencyTicks::UNDEFINED 104892799000                       # Cumulative time (in ticks) in various power states (Tick)
system.caches.controllers8.requestFromCache.m_not_avail_count       199468                       # Number of times this buffer did not have N slots available (Unspecified)
system.caches.controllers8.requestFromCache.m_buf_msgs     0.006518                       # Average number of messages in buffer (Unspecified)
system.caches.controllers8.requestFromCache.m_stall_time 88063.272008                       # Average number of cycles messages are stalled in this MB (Unspecified)
system.caches.controllers8.requestFromCache.m_occupancy     0.006518                       # Average occupancy of buffer capacity (Unspecified)
system.caches.controllers8.requestToMemory.m_buf_msgs     0.002155                       # Average number of messages in buffer (Unspecified)
system.caches.controllers8.requestToMemory.m_stall_time   999.999886                       # Average number of cycles messages are stalled in this MB (Unspecified)
system.caches.controllers8.responseFromMemory.m_buf_msgs     0.002155                       # Average number of messages in buffer (Unspecified)
system.caches.controllers8.responseFromMemory.m_stall_time   999.998923                       # Average number of cycles messages are stalled in this MB (Unspecified)
system.caches.controllers8.responseToCache.m_buf_msgs     0.032151                       # Average number of messages in buffer (Unspecified)
system.caches.controllers8.responseToCache.m_stall_time  8999.989532                       # Average number of cycles messages are stalled in this MB (Unspecified)
system.caches.controllers8.xyzCacheMemory.m_demand_hits            0                       # Number of cache demand hits (Unspecified)
system.caches.controllers8.xyzCacheMemory.m_demand_misses            0                       # Number of cache demand misses (Unspecified)
system.caches.controllers8.xyzCacheMemory.m_demand_accesses            0                       # Number of cache demand accesses (Unspecified)
system.caches.controllers8.xyzStatsObject.power_state.pwrStateResidencyTicks::UNDEFINED 104892799000                       # Cumulative time (in ticks) in various power states (Tick)
system.caches.network.msg_count.Control       4452034                       (Unspecified)
system.caches.network.msg_byte.Control       35616272                       (Unspecified)
system.caches.network.msg_count.Data          3766196                       (Unspecified)
system.caches.network.msg_byte.Data         271166112                       (Unspecified)
system.caches.network.msg_count.Response_Data       544452                       (Unspecified)
system.caches.network.msg_byte.Response_Data     39200544                       (Unspecified)
system.caches.network.int_link_buffers102.m_buf_msgs     0.000371                       # Average number of messages in buffer (Unspecified)
system.caches.network.int_link_buffers102.m_stall_time  1727.169546                       # Average number of cycles messages are stalled in this MB (Unspecified)
system.caches.network.int_link_buffers103.m_buf_msgs     0.002038                       # Average number of messages in buffer (Unspecified)
system.caches.network.int_link_buffers103.m_stall_time  1726.376365                       # Average number of cycles messages are stalled in this MB (Unspecified)
system.caches.network.int_link_buffers107.m_buf_msgs     0.000014                       # Average number of messages in buffer (Unspecified)
system.caches.network.int_link_buffers107.m_stall_time  1724.973704                       # Average number of cycles messages are stalled in this MB (Unspecified)
system.caches.network.int_link_buffers11.m_buf_msgs     0.003419                       # Average number of messages in buffer (Unspecified)
system.caches.network.int_link_buffers11.m_stall_time  2787.288105                       # Average number of cycles messages are stalled in this MB (Unspecified)
system.caches.network.int_link_buffers114.m_buf_msgs     0.000029                       # Average number of messages in buffer (Unspecified)
system.caches.network.int_link_buffers114.m_stall_time  1726.021574                       # Average number of cycles messages are stalled in this MB (Unspecified)
system.caches.network.int_link_buffers12.m_buf_msgs     0.000071                       # Average number of messages in buffer (Unspecified)
system.caches.network.int_link_buffers12.m_stall_time  1726.883768                       # Average number of cycles messages are stalled in this MB (Unspecified)
system.caches.network.int_link_buffers121.m_buf_msgs     0.000009                       # Average number of messages in buffer (Unspecified)
system.caches.network.int_link_buffers121.m_stall_time  1724.317005                       # Average number of cycles messages are stalled in this MB (Unspecified)
system.caches.network.int_link_buffers126.m_buf_msgs     0.071252                       # Average number of messages in buffer (Unspecified)
system.caches.network.int_link_buffers126.m_stall_time 34332.805210                       # Average number of cycles messages are stalled in this MB (Unspecified)
system.caches.network.int_link_buffers137.m_buf_msgs     0.000470                       # Average number of messages in buffer (Unspecified)
system.caches.network.int_link_buffers137.m_stall_time  1725.312507                       # Average number of cycles messages are stalled in this MB (Unspecified)
system.caches.network.int_link_buffers138.m_buf_msgs     0.002731                       # Average number of messages in buffer (Unspecified)
system.caches.network.int_link_buffers138.m_stall_time  1724.662214                       # Average number of cycles messages are stalled in this MB (Unspecified)
[...]
system.caches.controllers2.xyzStatsObjectlatency::underflows            0      0.00%      0.00% # Mem access latency (Unspecified)
system.caches.controllers2.xyzStatsObjectlatency::0-49999       213742    100.00%    100.00% # Mem access latency (Unspecified)
system.caches.controllers2.xyzStatsObjectlatency::50000-99999            0      0.00%    100.00% # Mem access latency (Unspecified)
system.caches.controllers2.xyzStatsObjectlatency::100000            0      0.00%    100.00% # Mem access latency (Unspecified)
system.caches.controllers2.xyzStatsObjectlatency::overflows            0      0.00%    100.00% # Mem access latency (Unspecified)
system.caches.controllers2.xyzStatsObjectlatency::min_value           10                       # Mem access latency (Unspecified)
system.caches.controllers2.xyzStatsObjectlatency::max_value         1050                       # Mem access latency (Unspecified)
system.caches.controllers2.xyzStatsObjectlatency::total       213742                       # Mem access latency (Unspecified)
system.caches.controllers3.xyzStatsObject.total_put            0                       # Total number of put (PutM + PutS) (Unspecified)
system.caches.controllers3.xyzStatsObject.total_put_as_wt            0                       # Total number of put as write through (Unspecified)
system.caches.controllers3.xyzStatsObject.total_putm            0                       # Total number of PutM (Unspecified)
system.caches.controllers3.xyzStatsObject.total_putm_as_wt            0                       # Total number of PutM as write through (Unspecified)
system.caches.controllers3.xyzStatsObject.total_puts            0                       # Total number of PutS (Unspecified)
system.caches.controllers3.xyzStatsObject.total_puts_as_wt            0                       # Total number of PutS as write through (Unspecified)
system.caches.controllers3.xyzStatsObject.total_repl            0                       # Total Replacement (Unspecified)
system.caches.controllers3.xyzStatsObject.total_repl_llc            0                       # Total Replacement of LLC line (Unspecified)
system.caches.controllers3.xyzStatsObject.total_repl_owned            0                       # Total Replacement of owned line (Unspecified)
system.caches.controllers3.xyzStatsObject.total_repl_shared            0                       # Total Replacement of shared line (Unspecified)
system.caches.controllers3.xyzStatsObject.wt_putRatio          nan                       # WT / Put (Unspecified)
system.caches.controllers3.xyzStatsObject.wt_putmRatio          nan                       # PutM WT / PutM (Unspecified)
system.caches.controllers3.xyzStatsObject.wt_putsRatio          nan                       # PutS WT / PutS (Unspecified)
system.caches.controllers3.xyzStatsObjectlatency::samples       286428                       # Mem access latency (Unspecified)
system.caches.controllers3.xyzStatsObjectlatency::mean    57.476650                       # Mem access latency (Unspecified)
system.caches.controllers3.xyzStatsObjectlatency::stdev   110.243512                       # Mem access latency (Unspecified)
system.caches.controllers3.xyzStatsObjectlatency::underflows            0      0.00%      0.00% # Mem access latency (Unspecified)
system.caches.controllers3.xyzStatsObjectlatency::0-49999       286428    100.00%    100.00% # Mem access latency (Unspecified)
system.caches.controllers3.xyzStatsObjectlatency::50000-99999            0      0.00%    100.00% # Mem access latency (Unspecified)
system.caches.controllers3.xyzStatsObjectlatency::100000            0      0.00%    100.00% # Mem access latency (Unspecified)
system.caches.controllers3.xyzStatsObjectlatency::overflows            0      0.00%    100.00% # Mem access latency (Unspecified)
system.caches.controllers3.xyzStatsObjectlatency::min_value           10                       # Mem access latency (Unspecified)
system.caches.controllers3.xyzStatsObjectlatency::max_value         1050                       # Mem access latency (Unspecified)
system.caches.controllers3.xyzStatsObjectlatency::total       286428                       # Mem access latency (Unspecified)
system.caches.controllers4.xyzStatsObject.total_put            0                       # Total number of put (PutM + PutS) (Unspecified)
system.caches.controllers4.xyzStatsObject.total_put_as_wt            0                       # Total number of put as write through (Unspecified)
system.caches.controllers4.xyzStatsObject.total_putm            0                       # Total number of PutM (Unspecified)
system.caches.controllers4.xyzStatsObject.total_putm_as_wt            0                       # Total number of PutM as write through (Unspecified)
system.caches.controllers4.xyzStatsObject.total_puts            0                       # Total number of PutS (Unspecified)
system.caches.controllers4.xyzStatsObject.total_puts_as_wt            0                       # Total number of PutS as write through (Unspecified)
system.caches.controllers4.xyzStatsObject.total_repl            0                       # Total Replacement (Unspecified)
system.caches.controllers4.xyzStatsObject.total_repl_llc            0                       # Total Replacement of LLC line (Unspecified)
system.caches.controllers4.xyzStatsObject.total_repl_owned            0                       # Total Replacement of owned line (Unspecified)
system.caches.controllers4.xyzStatsObject.total_repl_shared            0                       # Total Replacement of shared line (Unspecified)
system.caches.controllers4.xyzStatsObject.wt_putRatio          nan                       # WT / Put (Unspecified)
system.caches.controllers4.xyzStatsObject.wt_putmRatio          nan                       # PutM WT / PutM (Unspecified)
system.caches.controllers4.xyzStatsObject.wt_putsRatio          nan                       # PutS WT / PutS (Unspecified)
system.caches.controllers4.xyzStatsObjectlatency::samples       138190                       # Mem access latency (Unspecified)
system.caches.controllers4.xyzStatsObjectlatency::mean   157.183754                       # Mem access latency (Unspecified)
system.caches.controllers4.xyzStatsObjectlatency::stdev   133.250843                       # Mem access latency (Unspecified)
system.caches.controllers4.xyzStatsObjectlatency::underflows            0      0.00%      0.00% # Mem access latency (Unspecified)
system.caches.controllers4.xyzStatsObjectlatency::0-49999       138190    100.00%    100.00% # Mem access latency (Unspecified)
system.caches.controllers4.xyzStatsObjectlatency::50000-99999            0      0.00%    100.00% # Mem access latency (Unspecified)
system.caches.controllers4.xyzStatsObjectlatency::100000            0      0.00%    100.00% # Mem access latency (Unspecified)
system.caches.controllers4.xyzStatsObjectlatency::overflows            0      0.00%    100.00% # Mem access latency (Unspecified)
system.caches.controllers4.xyzStatsObjectlatency::min_value           15                       # Mem access latency (Unspecified)
system.caches.controllers4.xyzStatsObjectlatency::max_value          732                       # Mem access latency (Unspecified)
system.caches.controllers4.xyzStatsObjectlatency::total       138190                       # Mem access latency (Unspecified)
system.caches.controllers5.xyzStatsObject.total_put            0                       # Total number of put (PutM + PutS) (Unspecified)
system.caches.controllers5.xyzStatsObject.total_put_as_wt            0                       # Total number of put as write through (Unspecified)
system.caches.controllers5.xyzStatsObject.total_putm            0                       # Total number of PutM (Unspecified)
system.caches.controllers5.xyzStatsObject.total_putm_as_wt            0                       # Total number of PutM as write through (Unspecified)
system.caches.controllers5.xyzStatsObject.total_puts            0                       # Total number of PutS (Unspecified)
system.caches.controllers5.xyzStatsObject.total_puts_as_wt            0                       # Total number of PutS as write through (Unspecified)
system.caches.controllers5.xyzStatsObject.total_repl            0                       # Total Replacement (Unspecified)
system.caches.controllers5.xyzStatsObject.total_repl_llc            0                       # Total Replacement of LLC line (Unspecified)
system.caches.controllers5.xyzStatsObject.total_repl_owned            0                       # Total Replacement of owned line (Unspecified)
system.caches.controllers5.xyzStatsObject.total_repl_shared            0                       # Total Replacement of shared line (Unspecified)
system.caches.controllers5.xyzStatsObject.wt_putRatio          nan                       # WT / Put (Unspecified)
system.caches.controllers5.xyzStatsObject.wt_putmRatio          nan                       # PutM WT / PutM (Unspecified)
system.caches.controllers5.xyzStatsObject.wt_putsRatio          nan                       # PutS WT / PutS (Unspecified)
system.caches.controllers5.xyzStatsObjectlatency::samples        85550                       # Mem access latency (Unspecified)
system.caches.controllers5.xyzStatsObjectlatency::mean   106.140830                       # Mem access latency (Unspecified)
system.caches.controllers5.xyzStatsObjectlatency::stdev   127.046107                       # Mem access latency (Unspecified)
system.caches.controllers5.xyzStatsObjectlatency::underflows            0      0.00%      0.00% # Mem access latency (Unspecified)
system.caches.controllers5.xyzStatsObjectlatency::0-49999        85550    100.00%    100.00% # Mem access latency (Unspecified)
system.caches.controllers5.xyzStatsObjectlatency::50000-99999            0      0.00%    100.00% # Mem access latency (Unspecified)
system.caches.controllers5.xyzStatsObjectlatency::100000            0      0.00%    100.00% # Mem access latency (Unspecified)
system.caches.controllers5.xyzStatsObjectlatency::overflows            0      0.00%    100.00% # Mem access latency (Unspecified)
system.caches.controllers5.xyzStatsObjectlatency::min_value           15                       # Mem access latency (Unspecified)
system.caches.controllers5.xyzStatsObjectlatency::max_value          732                       # Mem access latency (Unspecified)
system.caches.controllers5.xyzStatsObjectlatency::total        85550                       # Mem access latency (Unspecified)
system.caches.controllers6.xyzStatsObject.total_put            0                       # Total number of put (PutM + PutS) (Unspecified)
system.caches.controllers6.xyzStatsObject.total_put_as_wt            0                       # Total number of put as write through (Unspecified)
system.caches.controllers6.xyzStatsObject.total_putm            0                       # Total number of PutM (Unspecified)
system.caches.controllers6.xyzStatsObject.total_putm_as_wt            0                       # Total number of PutM as write through (Unspecified)
system.caches.controllers6.xyzStatsObject.total_puts            0                       # Total number of PutS (Unspecified)
system.caches.controllers6.xyzStatsObject.total_puts_as_wt            0                       # Total number of PutS as write through (Unspecified)
system.caches.controllers6.xyzStatsObject.total_repl            0                       # Total Replacement (Unspecified)
system.caches.controllers6.xyzStatsObject.total_repl_llc            0                       # Total Replacement of LLC line (Unspecified)
system.caches.controllers6.xyzStatsObject.total_repl_owned            0                       # Total Replacement of owned line (Unspecified)
system.caches.controllers6.xyzStatsObject.total_repl_shared            0                       # Total Replacement of shared line (Unspecified)
system.caches.controllers6.xyzStatsObject.wt_putRatio          nan                       # WT / Put (Unspecified)
system.caches.controllers6.xyzStatsObject.wt_putmRatio          nan                       # PutM WT / PutM (Unspecified)
system.caches.controllers6.xyzStatsObject.wt_putsRatio          nan                       # PutS WT / PutS (Unspecified)
system.caches.controllers6.xyzStatsObjectlatency::samples        74993                       # Mem access latency (Unspecified)
system.caches.controllers6.xyzStatsObjectlatency::mean   112.601456                       # Mem access latency (Unspecified)
system.caches.controllers6.xyzStatsObjectlatency::stdev   132.179089                       # Mem access latency (Unspecified)
system.caches.controllers6.xyzStatsObjectlatency::underflows            0      0.00%      0.00% # Mem access latency (Unspecified)
system.caches.controllers6.xyzStatsObjectlatency::0-49999        74993    100.00%    100.00% # Mem access latency (Unspecified)
system.caches.controllers6.xyzStatsObjectlatency::50000-99999            0      0.00%    100.00% # Mem access latency (Unspecified)
system.caches.controllers6.xyzStatsObjectlatency::100000            0      0.00%    100.00% # Mem access latency (Unspecified)
system.caches.controllers6.xyzStatsObjectlatency::overflows            0      0.00%    100.00% # Mem access latency (Unspecified)
system.caches.controllers6.xyzStatsObjectlatency::min_value           15                       # Mem access latency (Unspecified)
system.caches.controllers6.xyzStatsObjectlatency::max_value          732                       # Mem access latency (Unspecified)
system.caches.controllers6.xyzStatsObjectlatency::total        74993                       # Mem access latency (Unspecified)
system.caches.controllers7.xyzStatsObject.total_put            0                       # Total number of put (PutM + PutS) (Unspecified)
system.caches.controllers7.xyzStatsObject.total_put_as_wt            0                       # Total number of put as write through (Unspecified)
system.caches.controllers7.xyzStatsObject.total_putm            0                       # Total number of PutM (Unspecified)
system.caches.controllers7.xyzStatsObject.total_putm_as_wt            0                       # Total number of PutM as write through (Unspecified)
system.caches.controllers7.xyzStatsObject.total_puts            0                       # Total number of PutS (Unspecified)
system.caches.controllers7.xyzStatsObject.total_puts_as_wt            0                       # Total number of PutS as write through (Unspecified)
system.caches.controllers7.xyzStatsObject.total_repl            0                       # Total Replacement (Unspecified)
system.caches.controllers7.xyzStatsObject.total_repl_llc            0                       # Total Replacement of LLC line (Unspecified)
system.caches.controllers7.xyzStatsObject.total_repl_owned            0                       # Total Replacement of owned line (Unspecified)
system.caches.controllers7.xyzStatsObject.total_repl_shared            0                       # Total Replacement of shared line (Unspecified)
system.caches.controllers7.xyzStatsObject.wt_putRatio          nan                       # WT / Put (Unspecified)
system.caches.controllers7.xyzStatsObject.wt_putmRatio          nan                       # PutM WT / PutM (Unspecified)
system.caches.controllers7.xyzStatsObject.wt_putsRatio          nan                       # PutS WT / PutS (Unspecified)
system.caches.controllers7.xyzStatsObjectlatency::samples        97904                       # Mem access latency (Unspecified)
system.caches.controllers7.xyzStatsObjectlatency::mean   107.834828                       # Mem access latency (Unspecified)
system.caches.controllers7.xyzStatsObjectlatency::stdev   127.357200                       # Mem access latency (Unspecified)
system.caches.controllers7.xyzStatsObjectlatency::underflows            0      0.00%      0.00% # Mem access latency (Unspecified)
system.caches.controllers7.xyzStatsObjectlatency::0-49999        97904    100.00%    100.00% # Mem access latency (Unspecified)
system.caches.controllers7.xyzStatsObjectlatency::50000-99999            0      0.00%    100.00% # Mem access latency (Unspecified)
system.caches.controllers7.xyzStatsObjectlatency::100000            0      0.00%    100.00% # Mem access latency (Unspecified)
system.caches.controllers7.xyzStatsObjectlatency::overflows            0      0.00%    100.00% # Mem access latency (Unspecified)
system.caches.controllers7.xyzStatsObjectlatency::min_value           15                       # Mem access latency (Unspecified)
system.caches.controllers7.xyzStatsObjectlatency::max_value          732                       # Mem access latency (Unspecified)
system.caches.controllers7.xyzStatsObjectlatency::total        97904                       # Mem access latency (Unspecified)
system.caches.controllers8.xyzStatsObject.total_put       307914                       # Total number of put (PutM + PutS) (Unspecified)
system.caches.controllers8.xyzStatsObject.total_put_as_wt       123590                       # Total number of put as write through (Unspecified)
system.caches.controllers8.xyzStatsObject.total_putm        99734                       # Total number of PutM (Unspecified)
system.caches.controllers8.xyzStatsObject.total_putm_as_wt        43299                       # Total number of PutM as write through (Unspecified)
system.caches.controllers8.xyzStatsObject.total_puts       208180                       # Total number of PutS (Unspecified)
system.caches.controllers8.xyzStatsObject.total_puts_as_wt        80291                       # Total number of PutS as write through (Unspecified)
system.caches.controllers8.xyzStatsObject.total_repl            0                       # Total Replacement (Unspecified)
system.caches.controllers8.xyzStatsObject.total_repl_llc            0                       # Total Replacement of LLC line (Unspecified)
system.caches.controllers8.xyzStatsObject.total_repl_owned            0                       # Total Replacement of owned line (Unspecified)
system.caches.controllers8.xyzStatsObject.total_repl_shared            0                       # Total Replacement of shared line (Unspecified)
system.caches.controllers8.xyzStatsObject.wt_putRatio     0.401378                       # WT / Put (Unspecified)
system.caches.controllers8.xyzStatsObject.wt_putmRatio     0.434145                       # PutM WT / PutM (Unspecified)
system.caches.controllers8.xyzStatsObject.wt_putsRatio     0.385681                       # PutS WT / PutS (Unspecified)
system.caches.controllers8.xyzStatsObjectlatency::samples            0                       # Mem access latency (Unspecified)
system.caches.controllers8.xyzStatsObjectlatency::mean          nan                       # Mem access latency (Unspecified)
system.caches.controllers8.xyzStatsObjectlatency::stdev          nan                       # Mem access latency (Unspecified)
system.caches.controllers8.xyzStatsObjectlatency::underflows            0                       # Mem access latency (Unspecified)
system.caches.controllers8.xyzStatsObjectlatency::0-49999            0                       # Mem access latency (Unspecified)
system.caches.controllers8.xyzStatsObjectlatency::50000-99999            0                       # Mem access latency (Unspecified)
system.caches.controllers8.xyzStatsObjectlatency::100000            0                       # Mem access latency (Unspecified)
system.caches.controllers8.xyzStatsObjectlatency::overflows            0                       # Mem access latency (Unspecified)
system.caches.controllers8.xyzStatsObjectlatency::min_value            0                       # Mem access latency (Unspecified)
system.caches.controllers8.xyzStatsObjectlatency::max_value            0                       # Mem access latency (Unspecified)
system.caches.controllers8.xyzStatsObjectlatency::total            0                       # Mem access latency (Unspecified)

---------- End Simulation Statistics   ----------
