
---------- Begin Simulation Statistics ----------
simSeconds                                   0.111300                       # Number of seconds simulated (Second)
simTicks                                 111299967000                       # Number of ticks simulated (Tick)
finalTick                                111299967000                       # Number of ticks from beginning of simulation (restored from checkpoints and never reset) (Tick)
simFreq                                  1000000000000                       # The number of ticks per simulated second ((Tick/Second))
hostSeconds                                     62.88                       # Real time elapsed on the host (Second)
hostTickRate                               1770063574                       # The number of ticks simulated per host second (ticks/s) ((Tick/Second))
hostMemory                                    4934388                       # Number of bytes of host memory used (Byte)
simInsts                                     59409236                       # Number of instructions simulated (Count)
simOps                                      116671262                       # Number of ops (including micro ops) simulated (Count)
hostInstRate                                   944807                       # Simulator instruction rate (inst/s) ((Count/Second))
hostOpRate                                    1855462                       # Simulator op (including micro ops) rate (op/s) ((Count/Second))
system.caches.m_outstandReqHistSeqr::bucket_size            1                       (Unspecified)
system.caches.m_outstandReqHistSeqr::max_bucket            9                       (Unspecified)
system.caches.m_outstandReqHistSeqr::samples     90487364                       (Unspecified)
system.caches.m_outstandReqHistSeqr::mean            1                       (Unspecified)
system.caches.m_outstandReqHistSeqr::gmean            1                       (Unspecified)
system.caches.m_outstandReqHistSeqr      |           0      0.00%      0.00% |    90487364    100.00%    100.00% |           0      0.00%    100.00% |           0      0.00%    100.00% |           0      0.00%    100.00% |           0      0.00%    100.00% |           0      0.00%    100.00% |           0      0.00%    100.00% |           0      0.00%    100.00% |           0      0.00%    100.00% (Unspecified)
system.caches.m_outstandReqHistSeqr::total     90487364                       (Unspecified)
system.caches.m_latencyHistSeqr::bucket_size          128                       (Unspecified)
system.caches.m_latencyHistSeqr::max_bucket         1279                       (Unspecified)
system.caches.m_latencyHistSeqr::samples     90487364                       (Unspecified)
system.caches.m_latencyHistSeqr::mean        2.062910                       (Unspecified)
system.caches.m_latencyHistSeqr::gmean       1.043138                       (Unspecified)
system.caches.m_latencyHistSeqr::stdev      18.691871                       (Unspecified)
system.caches.m_latencyHistSeqr          |    90224639     99.71%     99.71% |      106130      0.12%     99.83% |       94569      0.10%     99.93% |       35001      0.04%     99.97% |       17174      0.02%     99.99% |        7198      0.01%    100.00% |        2047      0.00%    100.00% |         511      0.00%    100.00% |          95      0.00%    100.00% |           0      0.00%    100.00% (Unspecified)
system.caches.m_latencyHistSeqr::total       90487364                       (Unspecified)
system.caches.m_hitLatencyHistSeqr::bucket_size            1                       (Unspecified)
system.caches.m_hitLatencyHistSeqr::max_bucket            9                       (Unspecified)
system.caches.m_hitLatencyHistSeqr::samples     89369441                       (Unspecified)
system.caches.m_hitLatencyHistSeqr::mean            1                       (Unspecified)
system.caches.m_hitLatencyHistSeqr::gmean            1                       (Unspecified)
system.caches.m_hitLatencyHistSeqr       |           0      0.00%      0.00% |    89369441    100.00%    100.00% |           0      0.00%    100.00% |           0      0.00%    100.00% |           0      0.00%    100.00% |           0      0.00%    100.00% |           0      0.00%    100.00% |           0      0.00%    100.00% |           0      0.00%    100.00% |           0      0.00%    100.00% (Unspecified)
system.caches.m_hitLatencyHistSeqr::total     89369441                       (Unspecified)
system.caches.m_missLatencyHistSeqr::bucket_size          128                       (Unspecified)
system.caches.m_missLatencyHistSeqr::max_bucket         1279                       (Unspecified)
system.caches.m_missLatencyHistSeqr::samples      1117923                       (Unspecified)
system.caches.m_missLatencyHistSeqr::mean    87.034453                       (Unspecified)
system.caches.m_missLatencyHistSeqr::gmean    30.523463                       (Unspecified)
system.caches.m_missLatencyHistSeqr::stdev   144.809115                       (Unspecified)
system.caches.m_missLatencyHistSeqr      |      855198     76.50%     76.50% |      106130      9.49%     85.99% |       94569      8.46%     94.45% |       35001      3.13%     97.58% |       17174      1.54%     99.12% |        7198      0.64%     99.76% |        2047      0.18%     99.95% |         511      0.05%     99.99% |          95      0.01%    100.00% |           0      0.00%    100.00% (Unspecified)
system.caches.m_missLatencyHistSeqr::total      1117923                       (Unspecified)
system.caches.L0Cache_Controller.Load    |     5137304     37.46%     37.46% |     2803701     20.44%     57.90% |     2464366     17.97%     75.87% |     3310193     24.13%    100.00% (Unspecified)
system.caches.L0Cache_Controller.Load::total     13715564                       (Unspecified)
system.caches.L0Cache_Controller.Ifetch  |    27917767     39.66%     39.66% |    13888021     19.73%     59.39% |    12209525     17.34%     76.73% |    16378518     23.27%    100.00% (Unspecified)
system.caches.L0Cache_Controller.Ifetch::total     70393831                       (Unspecified)
system.caches.L0Cache_Controller.Store   |     2219249     34.80%     34.80% |     1359608     21.32%     56.11% |     1195219     18.74%     74.85% |     1603893     25.15%    100.00% (Unspecified)
system.caches.L0Cache_Controller.Store::total      6377969                       (Unspecified)
system.caches.L0Cache_Controller.Replacement |      322240     34.01%     34.01% |      203480     21.48%     55.49% |      178930     18.89%     74.38% |      242710     25.62%    100.00% (Unspecified)
system.caches.L0Cache_Controller.Replacement::total       947360                       (Unspecified)
system.caches.L0Cache_Controller.Inv     |       82657     38.41%     38.41% |       44216     20.55%     58.96% |       38380     17.84%     76.80% |       49921     23.20%    100.00% (Unspecified)
system.caches.L0Cache_Controller.Inv::total       215174                       (Unspecified)
system.caches.L0Cache_Controller.Data    |      260043     37.44%     37.44% |      141725     20.40%     57.84% |      124899     17.98%     75.83% |      167915     24.17%    100.00% (Unspecified)
system.caches.L0Cache_Controller.Data::total       694582                       (Unspecified)
system.caches.L0Cache_Controller.ExData  |      114654     27.08%     27.08% |      101355     23.94%     51.02% |       88243     20.84%     71.87% |      119089     28.13%    100.00% (Unspecified)
system.caches.L0Cache_Controller.ExData::total       423341                       (Unspecified)
system.caches.L0Cache_Controller.I.Load  |      301647     31.43%     31.43% |      215161     22.42%     53.85% |      188261     19.62%     73.47% |      254572     26.53%    100.00% (Unspecified)
system.caches.L0Cache_Controller.I.Load::total       959641                       (Unspecified)
system.caches.L0Cache_Controller.I.Ifetch |       19336     48.20%     48.20% |        6809     16.97%     65.17% |        6282     15.66%     80.83% |        7693     19.17%    100.00% (Unspecified)
system.caches.L0Cache_Controller.I.Ifetch::total        40120                       (Unspecified)
system.caches.L0Cache_Controller.I.Store |       30202     96.93%     96.93% |         335      1.08%     98.00% |         336      1.08%     99.08% |         287      0.92%    100.00% (Unspecified)
system.caches.L0Cache_Controller.I.Store::total        31160                       (Unspecified)
system.caches.L0Cache_Controller.I.Inv   |       53772     40.78%     40.78% |       25449     19.30%     60.09% |       22488     17.06%     77.14% |       30138     22.86%    100.00% (Unspecified)
system.caches.L0Cache_Controller.I.Inv::total       131847                       (Unspecified)
system.caches.L0Cache_Controller.IS_D.Data |      206329     35.79%     35.79% |      120615     20.92%     56.72% |      106300     18.44%     75.16% |      143176     24.84%    100.00% (Unspecified)
system.caches.L0Cache_Controller.IS_D.Data::total       576420                       (Unspecified)
system.caches.L0Cache_Controller.IS_D.ExData |      114654     27.08%     27.08% |      101355     23.94%     51.02% |       88243     20.84%     71.87% |      119089     28.13%    100.00% (Unspecified)
system.caches.L0Cache_Controller.IS_D.ExData::total       423341                       (Unspecified)
system.caches.L0Cache_Controller.IM_D.Inv |           0      0.00%      0.00% |           0      0.00%      0.00% |           1    100.00%    100.00% |           0      0.00%    100.00% (Unspecified)
system.caches.L0Cache_Controller.IM_D.Inv::total            1                       (Unspecified)
system.caches.L0Cache_Controller.IM_D.Data |       53714     45.46%     45.46% |       21110     17.87%     63.32% |       18599     15.74%     79.06% |       24739     20.94%    100.00% (Unspecified)
system.caches.L0Cache_Controller.IM_D.Data::total       118162                       (Unspecified)
system.caches.L0Cache_Controller.S.Load  |     2348175     37.68%     37.68% |     1269103     20.37%     58.05% |     1114674     17.89%     75.94% |     1499266     24.06%    100.00% (Unspecified)
system.caches.L0Cache_Controller.S.Load::total      6231218                       (Unspecified)
system.caches.L0Cache_Controller.S.Ifetch |    27898431     39.65%     39.65% |    13881212     19.73%     59.39% |    12203243     17.35%     76.73% |    16370825     23.27%    100.00% (Unspecified)
system.caches.L0Cache_Controller.S.Ifetch::total     70353711                       (Unspecified)
system.caches.L0Cache_Controller.S.Store |       23512     27.02%     27.02% |       20775     23.88%     50.90% |       18263     20.99%     71.89% |       24452     28.11%    100.00% (Unspecified)
system.caches.L0Cache_Controller.S.Store::total        87002                       (Unspecified)
system.caches.L0Cache_Controller.S.Replacement |      162952     37.56%     37.56% |       88151     20.32%     57.88% |       77721     17.92%     75.80% |      104978     24.20%    100.00% (Unspecified)
system.caches.L0Cache_Controller.S.Replacement::total       433802                       (Unspecified)
system.caches.L0Cache_Controller.S.Inv   |       19818     35.75%     35.75% |       11647     21.01%     56.75% |       10274     18.53%     75.28% |       13703     24.72%    100.00% (Unspecified)
system.caches.L0Cache_Controller.S.Inv::total        55442                       (Unspecified)
system.caches.L0Cache_Controller.M.Load  |     2487482     38.12%     38.12% |     1319437     20.22%     58.35% |     1161431     17.80%     76.15% |     1556355     23.85%    100.00% (Unspecified)
system.caches.L0Cache_Controller.M.Load::total      6524705                       (Unspecified)
system.caches.L0Cache_Controller.M.Store |     2165535     34.59%     34.59% |     1338498     21.38%     55.98% |     1176620     18.80%     74.77% |     1579154     25.23%    100.00% (Unspecified)
system.caches.L0Cache_Controller.M.Store::total      6259807                       (Unspecified)
system.caches.L0Cache_Controller.M.Replacement |      159288     31.02%     31.02% |      115329     22.46%     53.47% |      101209     19.71%     73.18% |      137732     26.82%    100.00% (Unspecified)
system.caches.L0Cache_Controller.M.Replacement::total       513558                       (Unspecified)
system.caches.L0Cache_Controller.M.Inv   |        9067     32.52%     32.52% |        7120     25.53%     58.05% |        5617     20.14%     78.20% |        6080     21.80%    100.00% (Unspecified)
system.caches.L0Cache_Controller.M.Inv::total        27884                       (Unspecified)
system.caches.L1Cache_Controller.Load    |      320983     32.11%     32.11% |      221970     22.20%     54.31% |      194543     19.46%     73.77% |      262265     26.23%    100.00% (Unspecified)
system.caches.L1Cache_Controller.Load::total       999761                       (Unspecified)
system.caches.L1Cache_Controller.Store   |       53714     45.46%     45.46% |       21110     17.87%     63.32% |       18599     15.74%     79.06% |       24739     20.94%    100.00% (Unspecified)
system.caches.L1Cache_Controller.Store::total       118162                       (Unspecified)
system.caches.L1Cache_Controller.PutM    |      159288     31.02%     31.02% |      115329     22.46%     53.47% |      101209     19.71%     73.18% |      137732     26.82%    100.00% (Unspecified)
system.caches.L1Cache_Controller.PutM::total       513558                       (Unspecified)
system.caches.L1Cache_Controller.Replacement |      228033     38.47%     38.47% |      119166     20.11%     58.58% |      104838     17.69%     76.27% |      140656     23.73%    100.00% (Unspecified)
system.caches.L1Cache_Controller.Replacement::total       592693                       (Unspecified)
system.caches.L1Cache_Controller.FwdGetM |       10064     24.24%     24.24% |       12117     29.19%     53.44% |        9403     22.65%     76.09% |        9926     23.91%    100.00% (Unspecified)
system.caches.L1Cache_Controller.FwdGetM::total        41510                       (Unspecified)
system.caches.L1Cache_Controller.Inv     |           4     15.38%     15.38% |           8     30.77%     46.15% |           8     30.77%     76.92% |           6     23.08%    100.00% (Unspecified)
system.caches.L1Cache_Controller.Inv::total           26                       (Unspecified)
system.caches.L1Cache_Controller.PutAck  |      109401     38.12%     38.12% |       57992     20.21%     58.33% |       51080     17.80%     76.12% |       68521     23.88%    100.00% (Unspecified)
system.caches.L1Cache_Controller.PutAck::total       286994                       (Unspecified)
system.caches.L1Cache_Controller.DataDirNoAcks |      133189     35.55%     35.55% |       78912     21.07%     56.62% |       69524     18.56%     75.18% |       92984     24.82%    100.00% (Unspecified)
system.caches.L1Cache_Controller.DataDirNoAcks::total       374609                       (Unspecified)
system.caches.L1Cache_Controller.DataOwner |        5385     24.05%     24.05% |        6411     28.63%     52.67% |        4945     22.08%     74.75% |        5654     25.25%    100.00% (Unspecified)
system.caches.L1Cache_Controller.DataOwner::total        22395                       (Unspecified)
system.caches.L1Cache_Controller.InvAck  |          18     69.23%     69.23% |           3     11.54%     80.77% |           4     15.38%     96.15% |           1      3.85%    100.00% (Unspecified)
system.caches.L1Cache_Controller.InvAck::total           26                       (Unspecified)
system.caches.L1Cache_Controller.WB_Data |        9067     32.52%     32.52% |        7120     25.53%     58.05% |        5617     20.14%     78.20% |        6080     21.80%    100.00% (Unspecified)
system.caches.L1Cache_Controller.WB_Data::total        27884                       (Unspecified)
system.caches.L1Cache_Controller.I.Load  |      102514     34.56%     34.56% |       64250     21.66%     56.22% |       55922     18.85%     75.08% |       73927     24.92%    100.00% (Unspecified)
system.caches.L1Cache_Controller.I.Load::total       296613                       (Unspecified)
system.caches.L1Cache_Controller.I.Store |       12461     93.78%     93.78% |         293      2.21%     95.99% |         280      2.11%     98.10% |         253      1.90%    100.00% (Unspecified)
system.caches.L1Cache_Controller.I.Store::total        13287                       (Unspecified)
system.caches.L1Cache_Controller.IS_D.FwdGetM |          62     28.05%     28.05% |          73     33.03%     61.09% |          36     16.29%     77.38% |          50     22.62%    100.00% (Unspecified)
system.caches.L1Cache_Controller.IS_D.FwdGetM::total          221                       (Unspecified)
system.caches.L1Cache_Controller.IS_D.DataDirNoAcks |       97290     35.41%     35.41% |       57970     21.10%     56.50% |       51123     18.61%     75.11% |       68394     24.89%    100.00% (Unspecified)
system.caches.L1Cache_Controller.IS_D.DataDirNoAcks::total       274777                       (Unspecified)
system.caches.L1Cache_Controller.IS_D.DataOwner |        5224     23.92%     23.92% |        6280     28.76%     52.68% |        4799     21.98%     74.66% |        5533     25.34%    100.00% (Unspecified)
system.caches.L1Cache_Controller.IS_D.DataOwner::total        21836                       (Unspecified)
system.caches.L1Cache_Controller.IM_AD.FwdGetM |           6     35.29%     35.29% |           5     29.41%     64.71% |           2     11.76%     76.47% |           4     23.53%    100.00% (Unspecified)
system.caches.L1Cache_Controller.IM_AD.FwdGetM::total           17                       (Unspecified)
system.caches.L1Cache_Controller.IM_AD.DataDirNoAcks |       12300     96.64%     96.64% |         162      1.27%     97.91% |         134      1.05%     98.96% |         132      1.04%    100.00% (Unspecified)
system.caches.L1Cache_Controller.IM_AD.DataDirNoAcks::total        12728                       (Unspecified)
system.caches.L1Cache_Controller.IM_AD.DataOwner |         161     28.80%     28.80% |         131     23.43%     52.24% |         146     26.12%     78.35% |         121     21.65%    100.00% (Unspecified)
system.caches.L1Cache_Controller.IM_AD.DataOwner::total          559                       (Unspecified)
system.caches.L1Cache_Controller.IM_AD.InvAck |          13     86.67%     86.67% |           1      6.67%     93.33% |           1      6.67%    100.00% |           0      0.00%    100.00% (Unspecified)
system.caches.L1Cache_Controller.IM_AD.InvAck::total           15                       (Unspecified)
system.caches.L1Cache_Controller.S.Load  |      109039     36.15%     36.15% |       62645     20.77%     56.92% |       55177     18.29%     75.21% |       74782     24.79%    100.00% (Unspecified)
system.caches.L1Cache_Controller.S.Load::total       301643                       (Unspecified)
system.caches.L1Cache_Controller.S.Store |       23599     27.09%     27.09% |       20780     23.86%     50.95% |       18267     20.97%     71.92% |       24458     28.08%    100.00% (Unspecified)
system.caches.L1Cache_Controller.S.Store::total        87104                       (Unspecified)
system.caches.L1Cache_Controller.S.Replacement |       73581     39.30%     39.30% |       37084     19.80%     59.10% |       32752     17.49%     76.59% |       43831     23.41%    100.00% (Unspecified)
system.caches.L1Cache_Controller.S.Replacement::total       187248                       (Unspecified)
system.caches.L1Cache_Controller.S.Inv   |           4     15.38%     15.38% |           8     30.77%     46.15% |           8     30.77%     76.92% |           6     23.08%    100.00% (Unspecified)
system.caches.L1Cache_Controller.S.Inv::total           26                       (Unspecified)
system.caches.L1Cache_Controller.SM_AD.DataDirNoAcks |       23599     27.09%     27.09% |       20780     23.86%     50.95% |       18267     20.97%     71.92% |       24458     28.08%    100.00% (Unspecified)
system.caches.L1Cache_Controller.SM_AD.DataDirNoAcks::total        87104                       (Unspecified)
system.caches.L1Cache_Controller.SM_AD.InvAck |           5     45.45%     45.45% |           2     18.18%     63.64% |           3     27.27%     90.91% |           1      9.09%    100.00% (Unspecified)
system.caches.L1Cache_Controller.SM_AD.InvAck::total           11                       (Unspecified)
system.caches.L1Cache_Controller.M.Load  |      109430     27.25%     27.25% |       95075     23.68%     50.93% |       83444     20.78%     71.72% |      113556     28.28%    100.00% (Unspecified)
system.caches.L1Cache_Controller.M.Load::total       401505                       (Unspecified)
system.caches.L1Cache_Controller.M.Store |       17654     99.34%     99.34% |          37      0.21%     99.55% |          52      0.29%     99.84% |          28      0.16%    100.00% (Unspecified)
system.caches.L1Cache_Controller.M.Store::total        17771                       (Unspecified)
system.caches.L1Cache_Controller.M.Replacement |       35820     35.91%     35.91% |       20908     20.96%     56.87% |       18328     18.37%     75.25% |       24690     24.75%    100.00% (Unspecified)
system.caches.L1Cache_Controller.M.Replacement::total        99746                       (Unspecified)
system.caches.L1Cache_Controller.M.FwdGetM |        5442     24.30%     24.30% |        6424     28.69%     52.99% |        4996     22.31%     75.30% |        5532     24.70%    100.00% (Unspecified)
system.caches.L1Cache_Controller.M.FwdGetM::total        22394                       (Unspecified)
system.caches.L1Cache_Controller.M_P.PutM |      159283     31.02%     31.02% |      115325     22.46%     53.47% |      101207     19.71%     73.18% |      137728     26.82%    100.00% (Unspecified)
system.caches.L1Cache_Controller.M_P.PutM::total       513543                       (Unspecified)
system.caches.L1Cache_Controller.M_P.Replacement |        4546     49.97%     49.97% |        1523     16.74%     66.71% |        1270     13.96%     80.67% |        1758     19.33%    100.00% (Unspecified)
system.caches.L1Cache_Controller.M_P.Replacement::total         9097                       (Unspecified)
system.caches.L1Cache_Controller.M_P.FwdGetM |        4526     24.07%     24.07% |        5601     29.79%     53.86% |        4349     23.13%     76.99% |        4326     23.01%    100.00% (Unspecified)
system.caches.L1Cache_Controller.M_P.FwdGetM::total        18802                       (Unspecified)
system.caches.L1Cache_Controller.MP_D.PutM |           5     33.33%     33.33% |           4     26.67%     60.00% |           2     13.33%     73.33% |           4     26.67%    100.00% (Unspecified)
system.caches.L1Cache_Controller.MP_D.PutM::total           15                       (Unspecified)
system.caches.L1Cache_Controller.MP_D.Replacement |        4547     49.95%     49.95% |        1524     16.74%     66.68% |        1275     14.00%     80.69% |        1758     19.31%    100.00% (Unspecified)
system.caches.L1Cache_Controller.MP_D.Replacement::total         9104                       (Unspecified)
system.caches.L1Cache_Controller.MP_D.FwdGetM |          27     36.00%     36.00% |          14     18.67%     54.67% |          20     26.67%     81.33% |          14     18.67%    100.00% (Unspecified)
system.caches.L1Cache_Controller.MP_D.FwdGetM::total           75                       (Unspecified)
system.caches.L1Cache_Controller.MP_D.WB_Data |        9067     32.52%     32.52% |        7120     25.53%     58.05% |        5617     20.14%     78.20% |        6080     21.80%    100.00% (Unspecified)
system.caches.L1Cache_Controller.MP_D.WB_Data::total        27884                       (Unspecified)
system.caches.L1Cache_Controller.MI_A.Replacement |       35877     35.89%     35.89% |       20951     20.96%     56.86% |       18387     18.40%     75.25% |       24735     24.75%    100.00% (Unspecified)
system.caches.L1Cache_Controller.MI_A.Replacement::total        99950                       (Unspecified)
system.caches.L1Cache_Controller.MI_A.FwdGetM |           1    100.00%    100.00% |           0      0.00%    100.00% |           0      0.00%    100.00% |           0      0.00%    100.00% (Unspecified)
system.caches.L1Cache_Controller.MI_A.FwdGetM::total            1                       (Unspecified)
system.caches.L1Cache_Controller.MI_A.PutAck |       35819     35.91%     35.91% |       20908     20.96%     56.87% |       18328     18.37%     75.25% |       24690     24.75%    100.00% (Unspecified)
system.caches.L1Cache_Controller.MI_A.PutAck::total        99745                       (Unspecified)
system.caches.L1Cache_Controller.SI_A.Replacement |       73662     39.28%     39.28% |       37176     19.82%     59.10% |       32826     17.50%     76.60% |       43884     23.40%    100.00% (Unspecified)
system.caches.L1Cache_Controller.SI_A.Replacement::total       187548                       (Unspecified)
system.caches.L1Cache_Controller.SI_A.PutAck |       73581     39.30%     39.30% |       37084     19.80%     59.10% |       32752     17.49%     76.59% |       43831     23.41%    100.00% (Unspecified)
system.caches.L1Cache_Controller.SI_A.PutAck::total       187248                       (Unspecified)
system.caches.L1Cache_Controller.II_A.PutAck |           1    100.00%    100.00% |           0      0.00%    100.00% |           0      0.00%    100.00% |           0      0.00%    100.00% (Unspecified)
system.caches.L1Cache_Controller.II_A.PutAck::total            1                       (Unspecified)
system.caches.Directory_Controller.GetS        296613      0.00%      0.00% (Unspecified)
system.caches.Directory_Controller.GetM        100391      0.00%      0.00% (Unspecified)
system.caches.Directory_Controller.PutSNotLast        75508      0.00%      0.00% (Unspecified)
system.caches.Directory_Controller.PutSLast        34144      0.00%      0.00% (Unspecified)
system.caches.Directory_Controller.PutSLastWT        77596      0.00%      0.00% (Unspecified)
system.caches.Directory_Controller.PutMOwner        39370      0.00%      0.00% (Unspecified)
system.caches.Directory_Controller.PutMOwnerWT        60375      0.00%      0.00% (Unspecified)
system.caches.Directory_Controller.PutMNonOwner            1      0.00%      0.00% (Unspecified)
system.caches.Directory_Controller.Sync         36048      0.00%      0.00% (Unspecified)
system.caches.Directory_Controller.MemData       127777      0.00%      0.00% (Unspecified)
system.caches.Directory_Controller.LastMemAck       174019      0.00%      0.00% (Unspecified)
system.caches.Directory_Controller.I.GetS       116454      0.00%      0.00% (Unspecified)
system.caches.Directory_Controller.I.GetM        11323      0.00%      0.00% (Unspecified)
system.caches.Directory_Controller.S.GetS        75709      0.00%      0.00% (Unspecified)
system.caches.Directory_Controller.S.GetM        87113      0.00%      0.00% (Unspecified)
system.caches.Directory_Controller.S.PutSNotLast        75508      0.00%      0.00% (Unspecified)
system.caches.Directory_Controller.S.PutSLast        34144      0.00%      0.00% (Unspecified)
system.caches.Directory_Controller.S.PutSLastWT        77596      0.00%      0.00% (Unspecified)
system.caches.Directory_Controller.M.GetS        21836      0.00%      0.00% (Unspecified)
system.caches.Directory_Controller.M.GetM          559      0.00%      0.00% (Unspecified)
system.caches.Directory_Controller.M.PutMOwner        39370      0.00%      0.00% (Unspecified)
system.caches.Directory_Controller.M.PutMOwnerWT        60375      0.00%      0.00% (Unspecified)
system.caches.Directory_Controller.M.PutMNonOwner            1      0.00%      0.00% (Unspecified)
system.caches.Directory_Controller.LLCOnly.GetS        82614      0.00%      0.00% (Unspecified)
system.caches.Directory_Controller.LLCOnly.GetM         1396      0.00%      0.00% (Unspecified)
system.caches.Directory_Controller.LLCOnly.Sync        36048      0.00%      0.00% (Unspecified)
system.caches.Directory_Controller.LLCOnly_m.LastMemAck       113644      0.00%      0.00% (Unspecified)
system.caches.Directory_Controller.S_m.MemData       116454      0.00%      0.00% (Unspecified)
system.caches.Directory_Controller.M_m.MemData        11323      0.00%      0.00% (Unspecified)
system.caches.Directory_Controller.MI_m.LastMemAck        60375      0.00%      0.00% (Unspecified)
system.caches.RequestType.LD.latency_hist_seqr::bucket_size          128                       (Unspecified)
system.caches.RequestType.LD.latency_hist_seqr::max_bucket         1279                       (Unspecified)
system.caches.RequestType.LD.latency_hist_seqr::samples     13715564                       (Unspecified)
system.caches.RequestType.LD.latency_hist_seqr::mean     6.601146                       (Unspecified)
system.caches.RequestType.LD.latency_hist_seqr::gmean     1.259380                       (Unspecified)
system.caches.RequestType.LD.latency_hist_seqr::stdev    43.545001                       (Unspecified)
system.caches.RequestType.LD.latency_hist_seqr |    13514422     98.53%     98.53% |       72917      0.53%     99.07% |       72192      0.53%     99.59% |       31058      0.23%     99.82% |       15720      0.11%     99.93% |        6691      0.05%     99.98% |        1963      0.01%    100.00% |         506      0.00%    100.00% |          95      0.00%    100.00% |           0      0.00%    100.00% (Unspecified)
system.caches.RequestType.LD.latency_hist_seqr::total     13715564                       (Unspecified)
system.caches.RequestType.LD.hit_latency_hist_seqr::bucket_size            1                       (Unspecified)
system.caches.RequestType.LD.hit_latency_hist_seqr::max_bucket            9                       (Unspecified)
system.caches.RequestType.LD.hit_latency_hist_seqr::samples     12755923                       (Unspecified)
system.caches.RequestType.LD.hit_latency_hist_seqr::mean            1                       (Unspecified)
system.caches.RequestType.LD.hit_latency_hist_seqr::gmean            1                       (Unspecified)
system.caches.RequestType.LD.hit_latency_hist_seqr |           0      0.00%      0.00% |    12755923    100.00%    100.00% |           0      0.00%    100.00% |           0      0.00%    100.00% |           0      0.00%    100.00% |           0      0.00%    100.00% |           0      0.00%    100.00% |           0      0.00%    100.00% |           0      0.00%    100.00% |           0      0.00%    100.00% (Unspecified)
system.caches.RequestType.LD.hit_latency_hist_seqr::total     12755923                       (Unspecified)
system.caches.RequestType.LD.miss_latency_hist_seqr::bucket_size          128                       (Unspecified)
system.caches.RequestType.LD.miss_latency_hist_seqr::max_bucket         1279                       (Unspecified)
system.caches.RequestType.LD.miss_latency_hist_seqr::samples       959641                       (Unspecified)
system.caches.RequestType.LD.miss_latency_hist_seqr::mean    81.053772                       (Unspecified)
system.caches.RequestType.LD.miss_latency_hist_seqr::gmean    27.007344                       (Unspecified)
system.caches.RequestType.LD.miss_latency_hist_seqr::stdev   145.397963                       (Unspecified)
system.caches.RequestType.LD.miss_latency_hist_seqr |      758499     79.04%     79.04% |       72917      7.60%     86.64% |       72192      7.52%     94.16% |       31058      3.24%     97.40% |       15720      1.64%     99.04% |        6691      0.70%     99.73% |        1963      0.20%     99.94% |         506      0.05%     99.99% |          95      0.01%    100.00% |           0      0.00%    100.00% (Unspecified)
system.caches.RequestType.LD.miss_latency_hist_seqr::total       959641                       (Unspecified)
system.caches.RequestType.ST.latency_hist_seqr::bucket_size          128                       (Unspecified)
system.caches.RequestType.ST.latency_hist_seqr::max_bucket         1279                       (Unspecified)
system.caches.RequestType.ST.latency_hist_seqr::samples      6371510                       (Unspecified)
system.caches.RequestType.ST.latency_hist_seqr::mean     2.854235                       (Unspecified)
system.caches.RequestType.ST.latency_hist_seqr::gmean     1.076063                       (Unspecified)
system.caches.RequestType.ST.latency_hist_seqr::stdev    20.585750                       (Unspecified)
system.caches.RequestType.ST.latency_hist_seqr |     6331878     99.38%     99.38% |       23611      0.37%     99.75% |       14740      0.23%     99.98% |        1211      0.02%    100.00% |          47      0.00%    100.00% |          21      0.00%    100.00% |           1      0.00%    100.00% |           1      0.00%    100.00% |           0      0.00%    100.00% |           0      0.00%    100.00% (Unspecified)
system.caches.RequestType.ST.latency_hist_seqr::total      6371510                       (Unspecified)
system.caches.RequestType.ST.hit_latency_hist_seqr::bucket_size            1                       (Unspecified)
system.caches.RequestType.ST.hit_latency_hist_seqr::max_bucket            9                       (Unspecified)
system.caches.RequestType.ST.hit_latency_hist_seqr::samples      6254509                       (Unspecified)
system.caches.RequestType.ST.hit_latency_hist_seqr::mean            1                       (Unspecified)
system.caches.RequestType.ST.hit_latency_hist_seqr::gmean            1                       (Unspecified)
system.caches.RequestType.ST.hit_latency_hist_seqr |           0      0.00%      0.00% |     6254509    100.00%    100.00% |           0      0.00%    100.00% |           0      0.00%    100.00% |           0      0.00%    100.00% |           0      0.00%    100.00% |           0      0.00%    100.00% |           0      0.00%    100.00% |           0      0.00%    100.00% |           0      0.00%    100.00% (Unspecified)
system.caches.RequestType.ST.hit_latency_hist_seqr::total      6254509                       (Unspecified)
system.caches.RequestType.ST.miss_latency_hist_seqr::bucket_size          128                       (Unspecified)
system.caches.RequestType.ST.miss_latency_hist_seqr::max_bucket         1279                       (Unspecified)
system.caches.RequestType.ST.miss_latency_hist_seqr::samples       117001                       (Unspecified)
system.caches.RequestType.ST.miss_latency_hist_seqr::mean   101.975846                       (Unspecified)
system.caches.RequestType.ST.miss_latency_hist_seqr::gmean    54.172389                       (Unspecified)
system.caches.RequestType.ST.miss_latency_hist_seqr::stdev   114.317902                       (Unspecified)
system.caches.RequestType.ST.miss_latency_hist_seqr |       77369     66.13%     66.13% |       23611     20.18%     86.31% |       14740     12.60%     98.91% |        1211      1.04%     99.94% |          47      0.04%     99.98% |          21      0.02%    100.00% |           1      0.00%    100.00% |           1      0.00%    100.00% |           0      0.00%    100.00% |           0      0.00%    100.00% (Unspecified)
system.caches.RequestType.ST.miss_latency_hist_seqr::total       117001                       (Unspecified)
system.caches.RequestType.IFETCH.latency_hist_seqr::bucket_size          128                       (Unspecified)
system.caches.RequestType.IFETCH.latency_hist_seqr::max_bucket         1279                       (Unspecified)
system.caches.RequestType.IFETCH.latency_hist_seqr::samples     70393831                       (Unspecified)
system.caches.RequestType.IFETCH.latency_hist_seqr::mean     1.104922                       (Unspecified)
system.caches.RequestType.IFETCH.latency_hist_seqr::gmean     1.002653                       (Unspecified)
system.caches.RequestType.IFETCH.latency_hist_seqr::stdev     5.964216                       (Unspecified)
system.caches.RequestType.IFETCH.latency_hist_seqr |    70372299     99.97%     99.97% |        9383      0.01%     99.98% |        7534      0.01%     99.99% |        2700      0.00%    100.00% |        1381      0.00%    100.00% |         449      0.00%    100.00% |          81      0.00%    100.00% |           4      0.00%    100.00% |           0      0.00%    100.00% |           0      0.00%    100.00% (Unspecified)
system.caches.RequestType.IFETCH.latency_hist_seqr::total     70393831                       (Unspecified)
system.caches.RequestType.IFETCH.hit_latency_hist_seqr::bucket_size            1                       (Unspecified)
system.caches.RequestType.IFETCH.hit_latency_hist_seqr::max_bucket            9                       (Unspecified)
system.caches.RequestType.IFETCH.hit_latency_hist_seqr::samples     70353711                       (Unspecified)
system.caches.RequestType.IFETCH.hit_latency_hist_seqr::mean            1                       (Unspecified)
system.caches.RequestType.IFETCH.hit_latency_hist_seqr::gmean            1                       (Unspecified)
system.caches.RequestType.IFETCH.hit_latency_hist_seqr |           0      0.00%      0.00% |    70353711    100.00%    100.00% |           0      0.00%    100.00% |           0      0.00%    100.00% |           0      0.00%    100.00% |           0      0.00%    100.00% |           0      0.00%    100.00% |           0      0.00%    100.00% |           0      0.00%    100.00% |           0      0.00%    100.00% (Unspecified)
system.caches.RequestType.IFETCH.hit_latency_hist_seqr::total     70353711                       (Unspecified)
system.caches.RequestType.IFETCH.miss_latency_hist_seqr::bucket_size          128                       (Unspecified)
system.caches.RequestType.IFETCH.miss_latency_hist_seqr::max_bucket         1279                       (Unspecified)
system.caches.RequestType.IFETCH.miss_latency_hist_seqr::samples        40120                       (Unspecified)
system.caches.RequestType.IFETCH.miss_latency_hist_seqr::mean   185.094990                       (Unspecified)
system.caches.RequestType.IFETCH.miss_latency_hist_seqr::gmean   104.468689                       (Unspecified)
system.caches.RequestType.IFETCH.miss_latency_hist_seqr::stdev   168.946215                       (Unspecified)
system.caches.RequestType.IFETCH.miss_latency_hist_seqr |       18588     46.33%     46.33% |        9383     23.39%     69.72% |        7534     18.78%     88.50% |        2700      6.73%     95.23% |        1381      3.44%     98.67% |         449      1.12%     99.79% |          81      0.20%     99.99% |           4      0.01%    100.00% |           0      0.00%    100.00% |           0      0.00%    100.00% (Unspecified)
system.caches.RequestType.IFETCH.miss_latency_hist_seqr::total        40120                       (Unspecified)
system.caches.RequestType.RMW_Read.latency_hist_seqr::bucket_size           64                       (Unspecified)
system.caches.RequestType.RMW_Read.latency_hist_seqr::max_bucket          639                       (Unspecified)
system.caches.RequestType.RMW_Read.latency_hist_seqr::samples         2639                       (Unspecified)
system.caches.RequestType.RMW_Read.latency_hist_seqr::mean    15.922698                       (Unspecified)
system.caches.RequestType.RMW_Read.latency_hist_seqr::gmean     2.077130                       (Unspecified)
system.caches.RequestType.RMW_Read.latency_hist_seqr::stdev    51.637236                       (Unspecified)
system.caches.RequestType.RMW_Read.latency_hist_seqr |        2489     94.32%     94.32% |          35      1.33%     95.64% |          42      1.59%     97.23% |          27      1.02%     98.26% |          24      0.91%     99.17% |          21      0.80%     99.96% |           1      0.04%    100.00% |           0      0.00%    100.00% |           0      0.00%    100.00% |           0      0.00%    100.00% (Unspecified)
system.caches.RequestType.RMW_Read.latency_hist_seqr::total         2639                       (Unspecified)
system.caches.RequestType.RMW_Read.hit_latency_hist_seqr::bucket_size            1                       (Unspecified)
system.caches.RequestType.RMW_Read.hit_latency_hist_seqr::max_bucket            9                       (Unspecified)
system.caches.RequestType.RMW_Read.hit_latency_hist_seqr::samples         2122                       (Unspecified)
system.caches.RequestType.RMW_Read.hit_latency_hist_seqr::mean            1                       (Unspecified)
system.caches.RequestType.RMW_Read.hit_latency_hist_seqr::gmean            1                       (Unspecified)
system.caches.RequestType.RMW_Read.hit_latency_hist_seqr |           0      0.00%      0.00% |        2122    100.00%    100.00% |           0      0.00%    100.00% |           0      0.00%    100.00% |           0      0.00%    100.00% |           0      0.00%    100.00% |           0      0.00%    100.00% |           0      0.00%    100.00% |           0      0.00%    100.00% |           0      0.00%    100.00% (Unspecified)
system.caches.RequestType.RMW_Read.hit_latency_hist_seqr::total         2122                       (Unspecified)
system.caches.RequestType.RMW_Read.miss_latency_hist_seqr::bucket_size           64                       (Unspecified)
system.caches.RequestType.RMW_Read.miss_latency_hist_seqr::max_bucket          639                       (Unspecified)
system.caches.RequestType.RMW_Read.miss_latency_hist_seqr::samples          517                       (Unspecified)
system.caches.RequestType.RMW_Read.miss_latency_hist_seqr::mean    77.172147                       (Unspecified)
system.caches.RequestType.RMW_Read.miss_latency_hist_seqr::gmean    41.732756                       (Unspecified)
system.caches.RequestType.RMW_Read.miss_latency_hist_seqr::stdev    94.642429                       (Unspecified)
system.caches.RequestType.RMW_Read.miss_latency_hist_seqr |         367     70.99%     70.99% |          35      6.77%     77.76% |          42      8.12%     85.88% |          27      5.22%     91.10% |          24      4.64%     95.74% |          21      4.06%     99.81% |           1      0.19%    100.00% |           0      0.00%    100.00% |           0      0.00%    100.00% |           0      0.00%    100.00% (Unspecified)
system.caches.RequestType.RMW_Read.miss_latency_hist_seqr::total          517                       (Unspecified)
system.caches.RequestType.Locked_RMW_Read.latency_hist_seqr::bucket_size          128                       (Unspecified)
system.caches.RequestType.Locked_RMW_Read.latency_hist_seqr::max_bucket         1279                       (Unspecified)
system.caches.RequestType.Locked_RMW_Read.latency_hist_seqr::samples         1910                       (Unspecified)
system.caches.RequestType.Locked_RMW_Read.latency_hist_seqr::mean    62.500000                       (Unspecified)
system.caches.RequestType.Locked_RMW_Read.latency_hist_seqr::gmean     4.818153                       (Unspecified)
system.caches.RequestType.Locked_RMW_Read.latency_hist_seqr::stdev   141.668959                       (Unspecified)
system.caches.RequestType.Locked_RMW_Read.latency_hist_seqr |        1606     84.08%     84.08% |         150      7.85%     91.94% |          58      3.04%     94.97% |          31      1.62%     96.60% |          26      1.36%     97.96% |          37      1.94%     99.90% |           2      0.10%    100.00% |           0      0.00%    100.00% |           0      0.00%    100.00% |           0      0.00%    100.00% (Unspecified)
system.caches.RequestType.Locked_RMW_Read.latency_hist_seqr::total         1910                       (Unspecified)
system.caches.RequestType.Locked_RMW_Read.hit_latency_hist_seqr::bucket_size            1                       (Unspecified)
system.caches.RequestType.Locked_RMW_Read.hit_latency_hist_seqr::max_bucket            9                       (Unspecified)
system.caches.RequestType.Locked_RMW_Read.hit_latency_hist_seqr::samples         1266                       (Unspecified)
system.caches.RequestType.Locked_RMW_Read.hit_latency_hist_seqr::mean            1                       (Unspecified)
system.caches.RequestType.Locked_RMW_Read.hit_latency_hist_seqr::gmean            1                       (Unspecified)
system.caches.RequestType.Locked_RMW_Read.hit_latency_hist_seqr |           0      0.00%      0.00% |        1266    100.00%    100.00% |           0      0.00%    100.00% |           0      0.00%    100.00% |           0      0.00%    100.00% |           0      0.00%    100.00% |           0      0.00%    100.00% |           0      0.00%    100.00% |           0      0.00%    100.00% |           0      0.00%    100.00% (Unspecified)
system.caches.RequestType.Locked_RMW_Read.hit_latency_hist_seqr::total         1266                       (Unspecified)
system.caches.RequestType.Locked_RMW_Read.miss_latency_hist_seqr::bucket_size          128                       (Unspecified)
system.caches.RequestType.Locked_RMW_Read.miss_latency_hist_seqr::max_bucket         1279                       (Unspecified)
system.caches.RequestType.Locked_RMW_Read.miss_latency_hist_seqr::samples          644                       (Unspecified)
system.caches.RequestType.Locked_RMW_Read.miss_latency_hist_seqr::mean   183.399068                       (Unspecified)
system.caches.RequestType.Locked_RMW_Read.miss_latency_hist_seqr::gmean   106.001884                       (Unspecified)
system.caches.RequestType.Locked_RMW_Read.miss_latency_hist_seqr::stdev   193.648768                       (Unspecified)
system.caches.RequestType.Locked_RMW_Read.miss_latency_hist_seqr |         340     52.80%     52.80% |         150     23.29%     76.09% |          58      9.01%     85.09% |          31      4.81%     89.91% |          26      4.04%     93.94% |          37      5.75%     99.69% |           2      0.31%    100.00% |           0      0.00%    100.00% |           0      0.00%    100.00% |           0      0.00%    100.00% (Unspecified)
system.caches.RequestType.Locked_RMW_Read.miss_latency_hist_seqr::total          644                       (Unspecified)
system.caches.RequestType.Locked_RMW_Write.latency_hist_seqr::bucket_size            1                       (Unspecified)
system.caches.RequestType.Locked_RMW_Write.latency_hist_seqr::max_bucket            9                       (Unspecified)
system.caches.RequestType.Locked_RMW_Write.latency_hist_seqr::samples         1910                       (Unspecified)
system.caches.RequestType.Locked_RMW_Write.latency_hist_seqr::mean            1                       (Unspecified)
system.caches.RequestType.Locked_RMW_Write.latency_hist_seqr::gmean            1                       (Unspecified)
system.caches.RequestType.Locked_RMW_Write.latency_hist_seqr |           0      0.00%      0.00% |        1910    100.00%    100.00% |           0      0.00%    100.00% |           0      0.00%    100.00% |           0      0.00%    100.00% |           0      0.00%    100.00% |           0      0.00%    100.00% |           0      0.00%    100.00% |           0      0.00%    100.00% |           0      0.00%    100.00% (Unspecified)
system.caches.RequestType.Locked_RMW_Write.latency_hist_seqr::total         1910                       (Unspecified)
system.caches.RequestType.Locked_RMW_Write.hit_latency_hist_seqr::bucket_size            1                       (Unspecified)
system.caches.RequestType.Locked_RMW_Write.hit_latency_hist_seqr::max_bucket            9                       (Unspecified)
system.caches.RequestType.Locked_RMW_Write.hit_latency_hist_seqr::samples         1910                       (Unspecified)
system.caches.RequestType.Locked_RMW_Write.hit_latency_hist_seqr::mean            1                       (Unspecified)
system.caches.RequestType.Locked_RMW_Write.hit_latency_hist_seqr::gmean            1                       (Unspecified)
system.caches.RequestType.Locked_RMW_Write.hit_latency_hist_seqr |           0      0.00%      0.00% |        1910    100.00%    100.00% |           0      0.00%    100.00% |           0      0.00%    100.00% |           0      0.00%    100.00% |           0      0.00%    100.00% |           0      0.00%    100.00% |           0      0.00%    100.00% |           0      0.00%    100.00% |           0      0.00%    100.00% (Unspecified)
system.caches.RequestType.Locked_RMW_Write.hit_latency_hist_seqr::total         1910                       (Unspecified)
system.caches.controllers0.DCache.m_demand_hits            0                       # Number of cache demand hits (Unspecified)
system.caches.controllers0.DCache.m_demand_misses            0                       # Number of cache demand misses (Unspecified)
system.caches.controllers0.DCache.m_demand_accesses            0                       # Number of cache demand accesses (Unspecified)
system.caches.controllers0.ICache.m_demand_hits            0                       # Number of cache demand hits (Unspecified)
system.caches.controllers0.ICache.m_demand_misses            0                       # Number of cache demand misses (Unspecified)
system.caches.controllers0.ICache.m_demand_accesses            0                       # Number of cache demand accesses (Unspecified)
system.caches.controllers0.forwardFromL1.m_buf_msgs     2.513625                       # Average number of messages in buffer (Unspecified)
system.caches.controllers0.forwardFromL1.m_stall_time  5001.269821                       # Average number of cycles messages are stalled in this MB (Unspecified)
system.caches.controllers0.mandatoryQueue.m_buf_msgs     0.316930                       # Average number of messages in buffer (Unspecified)
system.caches.controllers0.mandatoryQueue.m_stall_time   999.999991                       # Average number of cycles messages are stalled in this MB (Unspecified)
system.caches.controllers0.power_state.pwrStateResidencyTicks::UNDEFINED 111299967000                       # Cumulative time (in ticks) in various power states (Tick)
system.caches.controllers0.requestToL1.m_buf_msgs     0.004798                       # Average number of messages in buffer (Unspecified)
system.caches.controllers0.requestToL1.m_stall_time   999.999982                       # Average number of cycles messages are stalled in this MB (Unspecified)
system.caches.controllers0.responseFromL1.m_buf_msgs     0.003367                       # Average number of messages in buffer (Unspecified)
system.caches.controllers0.responseFromL1.m_stall_time  4999.994115                       # Average number of cycles messages are stalled in this MB (Unspecified)
system.caches.controllers0.responseToL1.m_buf_msgs     0.000081                       # Average number of messages in buffer (Unspecified)
system.caches.controllers0.responseToL1.m_stall_time   999.856496                       # Average number of cycles messages are stalled in this MB (Unspecified)
system.caches.controllers0.xyzStatsObject.power_state.pwrStateResidencyTicks::UNDEFINED 111299967000                       # Cumulative time (in ticks) in various power states (Tick)
system.caches.controllers1.DCache.m_demand_hits            0                       # Number of cache demand hits (Unspecified)
system.caches.controllers1.DCache.m_demand_misses            0                       # Number of cache demand misses (Unspecified)
system.caches.controllers1.DCache.m_demand_accesses            0                       # Number of cache demand accesses (Unspecified)
system.caches.controllers1.ICache.m_demand_hits            0                       # Number of cache demand hits (Unspecified)
system.caches.controllers1.ICache.m_demand_misses            0                       # Number of cache demand misses (Unspecified)
system.caches.controllers1.ICache.m_demand_accesses            0                       # Number of cache demand accesses (Unspecified)
system.caches.controllers1.forwardFromL1.m_buf_msgs     1.363967                       # Average number of messages in buffer (Unspecified)
system.caches.controllers1.forwardFromL1.m_stall_time  3002.746488                       # Average number of cycles messages are stalled in this MB (Unspecified)
system.caches.controllers1.mandatoryQueue.m_buf_msgs     0.162186                       # Average number of messages in buffer (Unspecified)
system.caches.controllers1.mandatoryQueue.m_stall_time   600.388040                       # Average number of cycles messages are stalled in this MB (Unspecified)
system.caches.controllers1.power_state.pwrStateResidencyTicks::UNDEFINED 111299967000                       # Cumulative time (in ticks) in various power states (Tick)
system.caches.controllers1.requestToL1.m_buf_msgs     0.003220                       # Average number of messages in buffer (Unspecified)
system.caches.controllers1.requestToL1.m_stall_time   600.388031                       # Average number of cycles messages are stalled in this MB (Unspecified)
system.caches.controllers1.responseFromL1.m_buf_msgs     0.002184                       # Average number of messages in buffer (Unspecified)
system.caches.controllers1.responseFromL1.m_stall_time  3001.938940                       # Average number of cycles messages are stalled in this MB (Unspecified)
system.caches.controllers1.responseToL1.m_buf_msgs     0.000064                       # Average number of messages in buffer (Unspecified)
system.caches.controllers1.responseToL1.m_stall_time   600.050861                       # Average number of cycles messages are stalled in this MB (Unspecified)
system.caches.controllers1.xyzStatsObject.power_state.pwrStateResidencyTicks::UNDEFINED 111299967000                       # Cumulative time (in ticks) in various power states (Tick)
system.caches.controllers2.DCache.m_demand_hits            0                       # Number of cache demand hits (Unspecified)
system.caches.controllers2.DCache.m_demand_misses            0                       # Number of cache demand misses (Unspecified)
system.caches.controllers2.DCache.m_demand_accesses            0                       # Number of cache demand accesses (Unspecified)
system.caches.controllers2.ICache.m_demand_hits            0                       # Number of cache demand hits (Unspecified)
system.caches.controllers2.ICache.m_demand_misses            0                       # Number of cache demand misses (Unspecified)
system.caches.controllers2.ICache.m_demand_accesses            0                       # Number of cache demand accesses (Unspecified)
system.caches.controllers2.forwardFromL1.m_buf_msgs     1.260357                       # Average number of messages in buffer (Unspecified)
system.caches.controllers2.forwardFromL1.m_stall_time  3001.453855                       # Average number of cycles messages are stalled in this MB (Unspecified)
system.caches.controllers2.forwardFromL1.m_stall_count            1                       # Number of times messages were stalled (Unspecified)
system.caches.controllers2.mandatoryQueue.m_buf_msgs     0.142580                       # Average number of messages in buffer (Unspecified)
system.caches.controllers2.mandatoryQueue.m_stall_time   599.854553                       # Average number of cycles messages are stalled in this MB (Unspecified)
system.caches.controllers2.power_state.pwrStateResidencyTicks::UNDEFINED 111299967000                       # Cumulative time (in ticks) in various power states (Tick)
system.caches.controllers2.requestToL1.m_buf_msgs     0.002824                       # Average number of messages in buffer (Unspecified)
system.caches.controllers2.requestToL1.m_stall_time   599.854544                       # Average number of cycles messages are stalled in this MB (Unspecified)
system.caches.controllers2.responseFromL1.m_buf_msgs     0.001915                       # Average number of messages in buffer (Unspecified)
system.caches.controllers2.responseFromL1.m_stall_time  2999.265355                       # Average number of cycles messages are stalled in this MB (Unspecified)
system.caches.controllers2.responseToL1.m_buf_msgs     0.000050                       # Average number of messages in buffer (Unspecified)
system.caches.controllers2.responseToL1.m_stall_time   599.769163                       # Average number of cycles messages are stalled in this MB (Unspecified)
system.caches.controllers2.xyzStatsObject.power_state.pwrStateResidencyTicks::UNDEFINED 111299967000                       # Cumulative time (in ticks) in various power states (Tick)
system.caches.controllers3.DCache.m_demand_hits            0                       # Number of cache demand hits (Unspecified)
system.caches.controllers3.DCache.m_demand_misses            0                       # Number of cache demand misses (Unspecified)
system.caches.controllers3.DCache.m_demand_accesses            0                       # Number of cache demand accesses (Unspecified)
system.caches.controllers3.ICache.m_demand_hits            0                       # Number of cache demand hits (Unspecified)
system.caches.controllers3.ICache.m_demand_misses            0                       # Number of cache demand misses (Unspecified)
system.caches.controllers3.ICache.m_demand_accesses            0                       # Number of cache demand accesses (Unspecified)
system.caches.controllers3.forwardFromL1.m_buf_msgs     1.552450                       # Average number of messages in buffer (Unspecified)
system.caches.controllers3.forwardFromL1.m_stall_time  2998.289146                       # Average number of cycles messages are stalled in this MB (Unspecified)
system.caches.controllers3.mandatoryQueue.m_buf_msgs     0.191308                       # Average number of messages in buffer (Unspecified)
system.caches.controllers3.mandatoryQueue.m_stall_time   599.294347                       # Average number of cycles messages are stalled in this MB (Unspecified)
system.caches.controllers3.power_state.pwrStateResidencyTicks::UNDEFINED 111299967000                       # Cumulative time (in ticks) in various power states (Tick)
system.caches.controllers3.requestToL1.m_buf_msgs     0.003816                       # Average number of messages in buffer (Unspecified)
system.caches.controllers3.requestToL1.m_stall_time   599.294338                       # Average number of cycles messages are stalled in this MB (Unspecified)
system.caches.controllers3.responseFromL1.m_buf_msgs     0.002579                       # Average number of messages in buffer (Unspecified)
system.caches.controllers3.responseFromL1.m_stall_time  2996.464500                       # Average number of cycles messages are stalled in this MB (Unspecified)
system.caches.controllers3.responseToL1.m_buf_msgs     0.000055                       # Average number of messages in buffer (Unspecified)
system.caches.controllers3.responseToL1.m_stall_time   599.192343                       # Average number of cycles messages are stalled in this MB (Unspecified)
system.caches.controllers3.xyzStatsObject.power_state.pwrStateResidencyTicks::UNDEFINED 111299967000                       # Cumulative time (in ticks) in various power states (Tick)
system.caches.controllers4.cacheMemory.m_demand_hits            0                       # Number of cache demand hits (Unspecified)
system.caches.controllers4.cacheMemory.m_demand_misses            0                       # Number of cache demand misses (Unspecified)
system.caches.controllers4.cacheMemory.m_demand_accesses            0                       # Number of cache demand accesses (Unspecified)
system.caches.controllers4.forwardFromDir.m_buf_msgs     0.001444                       # Average number of messages in buffer (Unspecified)
system.caches.controllers4.forwardFromDir.m_stall_time  5267.463368                       # Average number of cycles messages are stalled in this MB (Unspecified)
system.caches.controllers4.forwardFromDir.m_stall_count         4621                       # Number of times messages were stalled (Unspecified)
system.caches.controllers4.forwardToL0.m_buf_msgs     0.000743                       # Average number of messages in buffer (Unspecified)
system.caches.controllers4.forwardToL0.m_stall_time   999.918104                       # Average number of cycles messages are stalled in this MB (Unspecified)
system.caches.controllers4.power_state.pwrStateResidencyTicks::UNDEFINED 111299967000                       # Cumulative time (in ticks) in various power states (Tick)
system.caches.controllers4.requestFromL0.m_buf_msgs     0.041723                       # Average number of messages in buffer (Unspecified)
system.caches.controllers4.requestFromL0.m_stall_time 20066.025500                       # Average number of cycles messages are stalled in this MB (Unspecified)
system.caches.controllers4.requestFromL0.m_stall_count       114086                       # Number of times messages were stalled (Unspecified)
system.caches.controllers4.requestToDir.m_buf_msgs     0.002228                       # Average number of messages in buffer (Unspecified)
system.caches.controllers4.requestToDir.m_stall_time   999.999937                       # Average number of cycles messages are stalled in this MB (Unspecified)
system.caches.controllers4.responseFromDirOrSibling.m_buf_msgs     0.001245                       # Average number of messages in buffer (Unspecified)
system.caches.controllers4.responseFromDirOrSibling.m_stall_time 12769.635457                       # Average number of cycles messages are stalled in this MB (Unspecified)
system.caches.controllers4.responseFromL0.m_buf_msgs     0.000081                       # Average number of messages in buffer (Unspecified)
system.caches.controllers4.responseFromL0.m_stall_time  4999.350629                       # Average number of cycles messages are stalled in this MB (Unspecified)
system.caches.controllers4.responseToDirOrSibling.m_buf_msgs     0.000049                       # Average number of messages in buffer (Unspecified)
system.caches.controllers4.responseToDirOrSibling.m_stall_time   600.386710                       # Average number of cycles messages are stalled in this MB (Unspecified)
system.caches.controllers4.responseToL0.m_buf_msgs     0.003367                       # Average number of messages in buffer (Unspecified)
system.caches.controllers4.responseToL0.m_stall_time   999.998859                       # Average number of cycles messages are stalled in this MB (Unspecified)
system.caches.controllers4.xyzStatsObject.power_state.pwrStateResidencyTicks::UNDEFINED 111299967000                       # Cumulative time (in ticks) in various power states (Tick)
system.caches.controllers5.cacheMemory.m_demand_hits            0                       # Number of cache demand hits (Unspecified)
system.caches.controllers5.cacheMemory.m_demand_misses            0                       # Number of cache demand misses (Unspecified)
system.caches.controllers5.cacheMemory.m_demand_accesses            0                       # Number of cache demand accesses (Unspecified)
system.caches.controllers5.forwardFromDir.m_buf_msgs     0.001088                       # Average number of messages in buffer (Unspecified)
system.caches.controllers5.forwardFromDir.m_stall_time  3828.876634                       # Average number of cycles messages are stalled in this MB (Unspecified)
system.caches.controllers5.forwardFromDir.m_stall_count         5693                       # Number of times messages were stalled (Unspecified)
system.caches.controllers5.forwardToL0.m_buf_msgs     0.000397                       # Average number of messages in buffer (Unspecified)
system.caches.controllers5.forwardToL0.m_stall_time   600.287716                       # Average number of cycles messages are stalled in this MB (Unspecified)
system.caches.controllers5.power_state.pwrStateResidencyTicks::UNDEFINED 111299967000                       # Cumulative time (in ticks) in various power states (Tick)
system.caches.controllers5.requestFromL0.m_buf_msgs     0.032834                       # Average number of messages in buffer (Unspecified)
system.caches.controllers5.requestFromL0.m_stall_time 13714.004417                       # Average number of cycles messages are stalled in this MB (Unspecified)
system.caches.controllers5.requestFromL0.m_stall_count        59651                       # Number of times messages were stalled (Unspecified)
system.caches.controllers5.requestToDir.m_buf_msgs     0.001288                       # Average number of messages in buffer (Unspecified)
system.caches.controllers5.requestToDir.m_stall_time   600.387986                       # Average number of cycles messages are stalled in this MB (Unspecified)
system.caches.controllers5.responseFromDirOrSibling.m_buf_msgs     0.000767                       # Average number of messages in buffer (Unspecified)
system.caches.controllers5.responseFromDirOrSibling.m_stall_time  7567.488407                       # Average number of cycles messages are stalled in this MB (Unspecified)
system.caches.controllers5.responseFromL0.m_buf_msgs     0.000064                       # Average number of messages in buffer (Unspecified)
system.caches.controllers5.responseFromL0.m_stall_time  3000.254124                       # Average number of cycles messages are stalled in this MB (Unspecified)
system.caches.controllers5.responseToDirOrSibling.m_buf_msgs     0.000058                       # Average number of messages in buffer (Unspecified)
system.caches.controllers5.responseToDirOrSibling.m_stall_time   599.807429                       # Average number of cycles messages are stalled in this MB (Unspecified)
system.caches.controllers5.responseToL0.m_buf_msgs     0.002184                       # Average number of messages in buffer (Unspecified)
system.caches.controllers5.responseToL0.m_stall_time   600.387824                       # Average number of cycles messages are stalled in this MB (Unspecified)
system.caches.controllers5.xyzStatsObject.power_state.pwrStateResidencyTicks::UNDEFINED 111299967000                       # Cumulative time (in ticks) in various power states (Tick)
system.caches.controllers6.cacheMemory.m_demand_hits            0                       # Number of cache demand hits (Unspecified)
system.caches.controllers6.cacheMemory.m_demand_misses            0                       # Number of cache demand misses (Unspecified)
system.caches.controllers6.cacheMemory.m_demand_accesses            0                       # Number of cache demand accesses (Unspecified)
system.caches.controllers6.forwardFromDir.m_buf_msgs     0.000898                       # Average number of messages in buffer (Unspecified)
system.caches.controllers6.forwardFromDir.m_stall_time  3669.039390                       # Average number of cycles messages are stalled in this MB (Unspecified)
system.caches.controllers6.forwardFromDir.m_stall_count         4407                       # Number of times messages were stalled (Unspecified)
system.caches.controllers6.forwardToL0.m_buf_msgs     0.000345                       # Average number of messages in buffer (Unspecified)
system.caches.controllers6.forwardToL0.m_stall_time   599.769207                       # Average number of cycles messages are stalled in this MB (Unspecified)
system.caches.controllers6.power_state.pwrStateResidencyTicks::UNDEFINED 111299967000                       # Cumulative time (in ticks) in various power states (Tick)
system.caches.controllers6.requestFromL0.m_buf_msgs     0.032666                       # Average number of messages in buffer (Unspecified)
system.caches.controllers6.requestFromL0.m_stall_time 14212.801691                       # Average number of cycles messages are stalled in this MB (Unspecified)
system.caches.controllers6.requestFromL0.m_stall_count        52488                       # Number of times messages were stalled (Unspecified)
system.caches.controllers6.requestToDir.m_buf_msgs     0.001128                       # Average number of messages in buffer (Unspecified)
system.caches.controllers6.requestToDir.m_stall_time   599.854500                       # Average number of cycles messages are stalled in this MB (Unspecified)
system.caches.controllers6.responseFromDirOrSibling.m_buf_msgs     0.000669                       # Average number of messages in buffer (Unspecified)
system.caches.controllers6.responseFromDirOrSibling.m_stall_time  7588.768683                       # Average number of cycles messages are stalled in this MB (Unspecified)
system.caches.controllers6.responseFromL0.m_buf_msgs     0.000050                       # Average number of messages in buffer (Unspecified)
system.caches.controllers6.responseFromL0.m_stall_time  2998.889919                       # Average number of cycles messages are stalled in this MB (Unspecified)
system.caches.controllers6.responseToDirOrSibling.m_buf_msgs     0.000045                       # Average number of messages in buffer (Unspecified)
system.caches.controllers6.responseToDirOrSibling.m_stall_time   599.740420                       # Average number of cycles messages are stalled in this MB (Unspecified)
system.caches.controllers6.responseToL0.m_buf_msgs     0.001915                       # Average number of messages in buffer (Unspecified)
system.caches.controllers6.responseToL0.m_stall_time   599.853107                       # Average number of cycles messages are stalled in this MB (Unspecified)
system.caches.controllers6.xyzStatsObject.power_state.pwrStateResidencyTicks::UNDEFINED 111299967000                       # Cumulative time (in ticks) in various power states (Tick)
system.caches.controllers7.cacheMemory.m_demand_hits            0                       # Number of cache demand hits (Unspecified)
system.caches.controllers7.cacheMemory.m_demand_misses            0                       # Number of cache demand misses (Unspecified)
system.caches.controllers7.cacheMemory.m_demand_accesses            0                       # Number of cache demand accesses (Unspecified)
system.caches.controllers7.forwardFromDir.m_buf_msgs     0.001059                       # Average number of messages in buffer (Unspecified)
system.caches.controllers7.forwardFromDir.m_stall_time  3222.370937                       # Average number of cycles messages are stalled in this MB (Unspecified)
system.caches.controllers7.forwardFromDir.m_stall_count         4394                       # Number of times messages were stalled (Unspecified)
system.caches.controllers7.forwardToL0.m_buf_msgs     0.000449                       # Average number of messages in buffer (Unspecified)
system.caches.controllers7.forwardToL0.m_stall_time   599.192388                       # Average number of cycles messages are stalled in this MB (Unspecified)
system.caches.controllers7.power_state.pwrStateResidencyTicks::UNDEFINED 111299967000                       # Cumulative time (in ticks) in various power states (Tick)
system.caches.controllers7.requestFromL0.m_buf_msgs     0.036813                       # Average number of messages in buffer (Unspecified)
system.caches.controllers7.requestFromL0.m_stall_time 15336.045483                       # Average number of cycles messages are stalled in this MB (Unspecified)
system.caches.controllers7.requestFromL0.m_stall_count        70377                       # Number of times messages were stalled (Unspecified)
system.caches.controllers7.requestToDir.m_buf_msgs     0.001502                       # Average number of messages in buffer (Unspecified)
system.caches.controllers7.requestToDir.m_stall_time   599.294293                       # Average number of cycles messages are stalled in this MB (Unspecified)
system.caches.controllers7.responseFromDirOrSibling.m_buf_msgs     0.000886                       # Average number of messages in buffer (Unspecified)
system.caches.controllers7.responseFromDirOrSibling.m_stall_time  7555.380003                       # Average number of cycles messages are stalled in this MB (Unspecified)
system.caches.controllers7.responseFromL0.m_buf_msgs     0.000055                       # Average number of messages in buffer (Unspecified)
system.caches.controllers7.responseFromL0.m_stall_time  2995.961535                       # Average number of cycles messages are stalled in this MB (Unspecified)
system.caches.controllers7.responseToDirOrSibling.m_buf_msgs     0.000050                       # Average number of messages in buffer (Unspecified)
system.caches.controllers7.responseToDirOrSibling.m_stall_time   599.174823                       # Average number of cycles messages are stalled in this MB (Unspecified)
system.caches.controllers7.responseToL0.m_buf_msgs     0.002579                       # Average number of messages in buffer (Unspecified)
system.caches.controllers7.responseToL0.m_stall_time   599.292936                       # Average number of cycles messages are stalled in this MB (Unspecified)
system.caches.controllers7.xyzStatsObject.power_state.pwrStateResidencyTicks::UNDEFINED 111299967000                       # Cumulative time (in ticks) in various power states (Tick)
system.caches.controllers8.cacheMemory.m_demand_hits            0                       # Number of cache demand hits (Unspecified)
system.caches.controllers8.cacheMemory.m_demand_misses            0                       # Number of cache demand misses (Unspecified)
system.caches.controllers8.cacheMemory.m_demand_accesses            0                       # Number of cache demand accesses (Unspecified)
system.caches.controllers8.forwardToCache.m_buf_msgs     0.003562                       # Average number of messages in buffer (Unspecified)
system.caches.controllers8.forwardToCache.m_stall_time   999.962300                       # Average number of cycles messages are stalled in this MB (Unspecified)
system.caches.controllers8.power_state.pwrStateResidencyTicks::UNDEFINED 111299967000                       # Cumulative time (in ticks) in various power states (Tick)
system.caches.controllers8.requestFromCache.m_not_avail_count       199492                       # Number of times this buffer did not have N slots available (Unspecified)
system.caches.controllers8.requestFromCache.m_buf_msgs     0.006146                       # Average number of messages in buffer (Unspecified)
system.caches.controllers8.requestFromCache.m_stall_time 101863.427409                       # Average number of cycles messages are stalled in this MB (Unspecified)
system.caches.controllers8.requestFromCache.m_occupancy     0.006146                       # Average occupancy of buffer capacity (Unspecified)
system.caches.controllers8.requestToMemory.m_buf_msgs     0.002712                       # Average number of messages in buffer (Unspecified)
system.caches.controllers8.requestToMemory.m_stall_time   999.999892                       # Average number of cycles messages are stalled in this MB (Unspecified)
system.caches.controllers8.responseFromMemory.m_buf_msgs     0.002712                       # Average number of messages in buffer (Unspecified)
system.caches.controllers8.responseFromMemory.m_stall_time   999.998985                       # Average number of cycles messages are stalled in this MB (Unspecified)
system.caches.controllers8.responseToCache.m_buf_msgs     0.030292                       # Average number of messages in buffer (Unspecified)
system.caches.controllers8.responseToCache.m_stall_time  8999.990135                       # Average number of cycles messages are stalled in this MB (Unspecified)
system.caches.controllers8.xyzCacheMemory.m_demand_hits            0                       # Number of cache demand hits (Unspecified)
system.caches.controllers8.xyzCacheMemory.m_demand_misses            0                       # Number of cache demand misses (Unspecified)
system.caches.controllers8.xyzCacheMemory.m_demand_accesses            0                       # Number of cache demand accesses (Unspecified)
system.caches.controllers8.xyzStatsObject.power_state.pwrStateResidencyTicks::UNDEFINED 111299967000                       # Cumulative time (in ticks) in various power states (Tick)
system.caches.network.msg_count.Control       4453578                       (Unspecified)
system.caches.network.msg_byte.Control       35628624                       (Unspecified)
system.caches.network.msg_count.Data          3818566                       (Unspecified)
system.caches.network.msg_byte.Data         274936752                       (Unspecified)
system.caches.network.msg_count.Response_Data       493664                       (Unspecified)
system.caches.network.msg_byte.Response_Data     35543808                       (Unspecified)
system.caches.network.int_link_buffers102.m_buf_msgs     0.000345                       # Average number of messages in buffer (Unspecified)
system.caches.network.int_link_buffers102.m_stall_time  1801.910337                       # Average number of cycles messages are stalled in this MB (Unspecified)
system.caches.network.int_link_buffers103.m_buf_msgs     0.001915                       # Average number of messages in buffer (Unspecified)
system.caches.network.int_link_buffers103.m_stall_time  1799.559267                       # Average number of cycles messages are stalled in this MB (Unspecified)
system.caches.network.int_link_buffers107.m_buf_msgs     0.000012                       # Average number of messages in buffer (Unspecified)
system.caches.network.int_link_buffers107.m_stall_time  1798.199940                       # Average number of cycles messages are stalled in this MB (Unspecified)
system.caches.network.int_link_buffers11.m_buf_msgs     0.003220                       # Average number of messages in buffer (Unspecified)
system.caches.network.int_link_buffers11.m_stall_time  2886.860020                       # Average number of cycles messages are stalled in this MB (Unspecified)
system.caches.network.int_link_buffers114.m_buf_msgs     0.000022                       # Average number of messages in buffer (Unspecified)
system.caches.network.int_link_buffers114.m_stall_time  1799.221207                       # Average number of cycles messages are stalled in this MB (Unspecified)
system.caches.network.int_link_buffers12.m_buf_msgs     0.000064                       # Average number of messages in buffer (Unspecified)
system.caches.network.int_link_buffers12.m_stall_time  1800.152528                       # Average number of cycles messages are stalled in this MB (Unspecified)
system.caches.network.int_link_buffers121.m_buf_msgs     0.000011                       # Average number of messages in buffer (Unspecified)
system.caches.network.int_link_buffers121.m_stall_time  1797.492042                       # Average number of cycles messages are stalled in this MB (Unspecified)
system.caches.network.int_link_buffers126.m_buf_msgs     0.109869                       # Average number of messages in buffer (Unspecified)
system.caches.network.int_link_buffers126.m_stall_time 53144.859001                       # Average number of cycles messages are stalled in this MB (Unspecified)
system.caches.network.int_link_buffers137.m_buf_msgs     0.000449                       # Average number of messages in buffer (Unspecified)
system.caches.network.int_link_buffers137.m_stall_time  1799.878512                       # Average number of cycles messages are stalled in this MB (Unspecified)
system.caches.network.int_link_buffers138.m_buf_msgs     0.002579                       # Average number of messages in buffer (Unspecified)
system.caches.network.int_link_buffers138.m_stall_time  1797.878754                       # Average number of cycles messages are stalled in this MB (Unspecified)
[...]
system.caches.controllers2.xyzStatsObjectlatency::underflows            0      0.00%      0.00% # Mem access latency (Unspecified)
system.caches.controllers2.xyzStatsObjectlatency::0-49999       213142    100.00%    100.00% # Mem access latency (Unspecified)
system.caches.controllers2.xyzStatsObjectlatency::50000-99999            0      0.00%    100.00% # Mem access latency (Unspecified)
system.caches.controllers2.xyzStatsObjectlatency::100000            0      0.00%    100.00% # Mem access latency (Unspecified)
system.caches.controllers2.xyzStatsObjectlatency::overflows            0      0.00%    100.00% # Mem access latency (Unspecified)
system.caches.controllers2.xyzStatsObjectlatency::min_value           10                       # Mem access latency (Unspecified)
system.caches.controllers2.xyzStatsObjectlatency::max_value         1050                       # Mem access latency (Unspecified)
system.caches.controllers2.xyzStatsObjectlatency::total       213142                       # Mem access latency (Unspecified)
system.caches.controllers3.xyzStatsObject.total_put            0                       # Total number of put (PutM + PutS) (Unspecified)
system.caches.controllers3.xyzStatsObject.total_put_as_wt            0                       # Total number of put as write through (Unspecified)
system.caches.controllers3.xyzStatsObject.total_putm            0                       # Total number of PutM (Unspecified)
system.caches.controllers3.xyzStatsObject.total_putm_as_wt            0                       # Total number of PutM as write through (Unspecified)
system.caches.controllers3.xyzStatsObject.total_puts            0                       # Total number of PutS (Unspecified)
system.caches.controllers3.xyzStatsObject.total_puts_as_wt            0                       # Total number of PutS as write through (Unspecified)
system.caches.controllers3.xyzStatsObject.total_repl            0                       # Total Replacement (Unspecified)
system.caches.controllers3.xyzStatsObject.total_repl_llc            0                       # Total Replacement of LLC line (Unspecified)
system.caches.controllers3.xyzStatsObject.total_repl_owned            0                       # Total Replacement of owned line (Unspecified)
system.caches.controllers3.xyzStatsObject.total_repl_shared            0                       # Total Replacement of shared line (Unspecified)
system.caches.controllers3.xyzStatsObject.wt_putRatio          nan                       # WT / Put (Unspecified)
system.caches.controllers3.xyzStatsObject.wt_putmRatio          nan                       # PutM WT / PutM (Unspecified)
system.caches.controllers3.xyzStatsObject.wt_putsRatio          nan                       # PutS WT / PutS (Unspecified)
system.caches.controllers3.xyzStatsObjectlatency::samples       287004                       # Mem access latency (Unspecified)
system.caches.controllers3.xyzStatsObjectlatency::mean    79.354985                       # Mem access latency (Unspecified)
system.caches.controllers3.xyzStatsObjectlatency::stdev   140.373100                       # Mem access latency (Unspecified)
system.caches.controllers3.xyzStatsObjectlatency::underflows            0      0.00%      0.00% # Mem access latency (Unspecified)
system.caches.controllers3.xyzStatsObjectlatency::0-49999       287004    100.00%    100.00% # Mem access latency (Unspecified)
system.caches.controllers3.xyzStatsObjectlatency::50000-99999            0      0.00%    100.00% # Mem access latency (Unspecified)
system.caches.controllers3.xyzStatsObjectlatency::100000            0      0.00%    100.00% # Mem access latency (Unspecified)
system.caches.controllers3.xyzStatsObjectlatency::overflows            0      0.00%    100.00% # Mem access latency (Unspecified)
system.caches.controllers3.xyzStatsObjectlatency::min_value           10                       # Mem access latency (Unspecified)
system.caches.controllers3.xyzStatsObjectlatency::max_value         1050                       # Mem access latency (Unspecified)
system.caches.controllers3.xyzStatsObjectlatency::total       287004                       # Mem access latency (Unspecified)
system.caches.controllers4.xyzStatsObject.total_put            0                       # Total number of put (PutM + PutS) (Unspecified)
system.caches.controllers4.xyzStatsObject.total_put_as_wt            0                       # Total number of put as write through (Unspecified)
system.caches.controllers4.xyzStatsObject.total_putm            0                       # Total number of PutM (Unspecified)
system.caches.controllers4.xyzStatsObject.total_putm_as_wt            0                       # Total number of PutM as write through (Unspecified)
system.caches.controllers4.xyzStatsObject.total_puts            0                       # Total number of PutS (Unspecified)
system.caches.controllers4.xyzStatsObject.total_puts_as_wt            0                       # Total number of PutS as write through (Unspecified)
system.caches.controllers4.xyzStatsObject.total_repl            0                       # Total Replacement (Unspecified)
system.caches.controllers4.xyzStatsObject.total_repl_llc            0                       # Total Replacement of LLC line (Unspecified)
system.caches.controllers4.xyzStatsObject.total_repl_owned            0                       # Total Replacement of owned line (Unspecified)
system.caches.controllers4.xyzStatsObject.total_repl_shared            0                       # Total Replacement of shared line (Unspecified)
system.caches.controllers4.xyzStatsObject.wt_putRatio          nan                       # WT / Put (Unspecified)
system.caches.controllers4.xyzStatsObject.wt_putmRatio          nan                       # PutM WT / PutM (Unspecified)
system.caches.controllers4.xyzStatsObject.wt_putsRatio          nan                       # PutS WT / PutS (Unspecified)
system.caches.controllers4.xyzStatsObjectlatency::samples       138574                       # Mem access latency (Unspecified)
system.caches.controllers4.xyzStatsObjectlatency::mean   191.601072                       # Mem access latency (Unspecified)
system.caches.controllers4.xyzStatsObjectlatency::stdev   134.669672                       # Mem access latency (Unspecified)
system.caches.controllers4.xyzStatsObjectlatency::underflows            0      0.00%      0.00% # Mem access latency (Unspecified)
system.caches.controllers4.xyzStatsObjectlatency::0-49999       138574    100.00%    100.00% # Mem access latency (Unspecified)
system.caches.controllers4.xyzStatsObjectlatency::50000-99999            0      0.00%    100.00% # Mem access latency (Unspecified)
system.caches.controllers4.xyzStatsObjectlatency::100000            0      0.00%    100.00% # Mem access latency (Unspecified)
system.caches.controllers4.xyzStatsObjectlatency::overflows            0      0.00%    100.00% # Mem access latency (Unspecified)
system.caches.controllers4.xyzStatsObjectlatency::min_value           15                       # Mem access latency (Unspecified)
system.caches.controllers4.xyzStatsObjectlatency::max_value          842                       # Mem access latency (Unspecified)
system.caches.controllers4.xyzStatsObjectlatency::total       138574                       # Mem access latency (Unspecified)
system.caches.controllers5.xyzStatsObject.total_put            0                       # Total number of put (PutM + PutS) (Unspecified)
system.caches.controllers5.xyzStatsObject.total_put_as_wt            0                       # Total number of put as write through (Unspecified)
system.caches.controllers5.xyzStatsObject.total_putm            0                       # Total number of PutM (Unspecified)
system.caches.controllers5.xyzStatsObject.total_putm_as_wt            0                       # Total number of PutM as write through (Unspecified)
system.caches.controllers5.xyzStatsObject.total_puts            0                       # Total number of PutS (Unspecified)
system.caches.controllers5.xyzStatsObject.total_puts_as_wt            0                       # Total number of PutS as write through (Unspecified)
system.caches.controllers5.xyzStatsObject.total_repl            0                       # Total Replacement (Unspecified)
system.caches.controllers5.xyzStatsObject.total_repl_llc            0                       # Total Replacement of LLC line (Unspecified)
system.caches.controllers5.xyzStatsObject.total_repl_owned            0                       # Total Replacement of owned line (Unspecified)
system.caches.controllers5.xyzStatsObject.total_repl_shared            0                       # Total Replacement of shared line (Unspecified)
system.caches.controllers5.xyzStatsObject.wt_putRatio          nan                       # WT / Put (Unspecified)
system.caches.controllers5.xyzStatsObject.wt_putmRatio          nan                       # PutM WT / PutM (Unspecified)
system.caches.controllers5.xyzStatsObject.wt_putsRatio          nan                       # PutS WT / PutS (Unspecified)
system.caches.controllers5.xyzStatsObjectlatency::samples        85323                       # Mem access latency (Unspecified)
system.caches.controllers5.xyzStatsObjectlatency::mean   163.086858                       # Mem access latency (Unspecified)
system.caches.controllers5.xyzStatsObjectlatency::stdev   147.668528                       # Mem access latency (Unspecified)
system.caches.controllers5.xyzStatsObjectlatency::underflows            0      0.00%      0.00% # Mem access latency (Unspecified)
system.caches.controllers5.xyzStatsObjectlatency::0-49999        85323    100.00%    100.00% # Mem access latency (Unspecified)
system.caches.controllers5.xyzStatsObjectlatency::50000-99999            0      0.00%    100.00% # Mem access latency (Unspecified)
system.caches.controllers5.xyzStatsObjectlatency::100000            0      0.00%    100.00% # Mem access latency (Unspecified)
system.caches.controllers5.xyzStatsObjectlatency::overflows            0      0.00%    100.00% # Mem access latency (Unspecified)
system.caches.controllers5.xyzStatsObjectlatency::min_value           15                       # Mem access latency (Unspecified)
system.caches.controllers5.xyzStatsObjectlatency::max_value          732                       # Mem access latency (Unspecified)
system.caches.controllers5.xyzStatsObjectlatency::total        85323                       # Mem access latency (Unspecified)
system.caches.controllers6.xyzStatsObject.total_put            0                       # Total number of put (PutM + PutS) (Unspecified)
system.caches.controllers6.xyzStatsObject.total_put_as_wt            0                       # Total number of put as write through (Unspecified)
system.caches.controllers6.xyzStatsObject.total_putm            0                       # Total number of PutM (Unspecified)
system.caches.controllers6.xyzStatsObject.total_putm_as_wt            0                       # Total number of PutM as write through (Unspecified)
system.caches.controllers6.xyzStatsObject.total_puts            0                       # Total number of PutS (Unspecified)
system.caches.controllers6.xyzStatsObject.total_puts_as_wt            0                       # Total number of PutS as write through (Unspecified)
system.caches.controllers6.xyzStatsObject.total_repl            0                       # Total Replacement (Unspecified)
system.caches.controllers6.xyzStatsObject.total_repl_llc            0                       # Total Replacement of LLC line (Unspecified)
system.caches.controllers6.xyzStatsObject.total_repl_owned            0                       # Total Replacement of owned line (Unspecified)
system.caches.controllers6.xyzStatsObject.total_repl_shared            0                       # Total Replacement of shared line (Unspecified)
system.caches.controllers6.xyzStatsObject.wt_putRatio          nan                       # WT / Put (Unspecified)
system.caches.controllers6.xyzStatsObject.wt_putmRatio          nan                       # PutM WT / PutM (Unspecified)
system.caches.controllers6.xyzStatsObject.wt_putsRatio          nan                       # PutS WT / PutS (Unspecified)
system.caches.controllers6.xyzStatsObjectlatency::samples        74469                       # Mem access latency (Unspecified)
system.caches.controllers6.xyzStatsObjectlatency::mean   166.472707                       # Mem access latency (Unspecified)
system.caches.controllers6.xyzStatsObjectlatency::stdev   149.814699                       # Mem access latency (Unspecified)
system.caches.controllers6.xyzStatsObjectlatency::underflows            0      0.00%      0.00% # Mem access latency (Unspecified)
system.caches.controllers6.xyzStatsObjectlatency::0-49999        74469    100.00%    100.00% # Mem access latency (Unspecified)
system.caches.controllers6.xyzStatsObjectlatency::50000-99999            0      0.00%    100.00% # Mem access latency (Unspecified)
system.caches.controllers6.xyzStatsObjectlatency::100000            0      0.00%    100.00% # Mem access latency (Unspecified)
system.caches.controllers6.xyzStatsObjectlatency::overflows            0      0.00%    100.00% # Mem access latency (Unspecified)
system.caches.controllers6.xyzStatsObjectlatency::min_value           15                       # Mem access latency (Unspecified)
system.caches.controllers6.xyzStatsObjectlatency::max_value          732                       # Mem access latency (Unspecified)
system.caches.controllers6.xyzStatsObjectlatency::total        74469                       # Mem access latency (Unspecified)
system.caches.controllers7.xyzStatsObject.total_put            0                       # Total number of put (PutM + PutS) (Unspecified)
system.caches.controllers7.xyzStatsObject.total_put_as_wt            0                       # Total number of put as write through (Unspecified)
system.caches.controllers7.xyzStatsObject.total_putm            0                       # Total number of PutM (Unspecified)
system.caches.controllers7.xyzStatsObject.total_putm_as_wt            0                       # Total number of PutM as write through (Unspecified)
system.caches.controllers7.xyzStatsObject.total_puts            0                       # Total number of PutS (Unspecified)
system.caches.controllers7.xyzStatsObject.total_puts_as_wt            0                       # Total number of PutS as write through (Unspecified)
system.caches.controllers7.xyzStatsObject.total_repl            0                       # Total Replacement (Unspecified)
system.caches.controllers7.xyzStatsObject.total_repl_llc            0                       # Total Replacement of LLC line (Unspecified)
system.caches.controllers7.xyzStatsObject.total_repl_owned            0                       # Total Replacement of owned line (Unspecified)
system.caches.controllers7.xyzStatsObject.total_repl_shared            0                       # Total Replacement of shared line (Unspecified)
system.caches.controllers7.xyzStatsObject.wt_putRatio          nan                       # WT / Put (Unspecified)
system.caches.controllers7.xyzStatsObject.wt_putmRatio          nan                       # PutM WT / PutM (Unspecified)
system.caches.controllers7.xyzStatsObject.wt_putsRatio          nan                       # PutS WT / PutS (Unspecified)
system.caches.controllers7.xyzStatsObjectlatency::samples        98638                       # Mem access latency (Unspecified)
system.caches.controllers7.xyzStatsObjectlatency::mean   158.975740                       # Mem access latency (Unspecified)
system.caches.controllers7.xyzStatsObjectlatency::stdev   143.845463                       # Mem access latency (Unspecified)
system.caches.controllers7.xyzStatsObjectlatency::underflows            0      0.00%      0.00% # Mem access latency (Unspecified)
system.caches.controllers7.xyzStatsObjectlatency::0-49999        98638    100.00%    100.00% # Mem access latency (Unspecified)
system.caches.controllers7.xyzStatsObjectlatency::50000-99999            0      0.00%    100.00% # Mem access latency (Unspecified)
system.caches.controllers7.xyzStatsObjectlatency::100000            0      0.00%    100.00% # Mem access latency (Unspecified)
system.caches.controllers7.xyzStatsObjectlatency::overflows            0      0.00%    100.00% # Mem access latency (Unspecified)
system.caches.controllers7.xyzStatsObjectlatency::min_value           15                       # Mem access latency (Unspecified)
system.caches.controllers7.xyzStatsObjectlatency::max_value          732                       # Mem access latency (Unspecified)
system.caches.controllers7.xyzStatsObjectlatency::total        98638                       # Mem access latency (Unspecified)
system.caches.controllers8.xyzStatsObject.total_put       323042                       # Total number of put (PutM + PutS) (Unspecified)
system.caches.controllers8.xyzStatsObject.total_put_as_wt       174019                       # Total number of put as write through (Unspecified)
system.caches.controllers8.xyzStatsObject.total_putm        99746                       # Total number of PutM (Unspecified)
system.caches.controllers8.xyzStatsObject.total_putm_as_wt        60375                       # Total number of PutM as write through (Unspecified)
system.caches.controllers8.xyzStatsObject.total_puts       223296                       # Total number of PutS (Unspecified)
system.caches.controllers8.xyzStatsObject.total_puts_as_wt       113644                       # Total number of PutS as write through (Unspecified)
system.caches.controllers8.xyzStatsObject.total_repl            0                       # Total Replacement (Unspecified)
system.caches.controllers8.xyzStatsObject.total_repl_llc            0                       # Total Replacement of LLC line (Unspecified)
system.caches.controllers8.xyzStatsObject.total_repl_owned            0                       # Total Replacement of owned line (Unspecified)
system.caches.controllers8.xyzStatsObject.total_repl_shared            0                       # Total Replacement of shared line (Unspecified)
system.caches.controllers8.xyzStatsObject.wt_putRatio     0.538688                       # WT / Put (Unspecified)
system.caches.controllers8.xyzStatsObject.wt_putmRatio     0.605287                       # PutM WT / PutM (Unspecified)
system.caches.controllers8.xyzStatsObject.wt_putsRatio     0.508939                       # PutS WT / PutS (Unspecified)
system.caches.controllers8.xyzStatsObjectlatency::samples            0                       # Mem access latency (Unspecified)
system.caches.controllers8.xyzStatsObjectlatency::mean          nan                       # Mem access latency (Unspecified)
system.caches.controllers8.xyzStatsObjectlatency::stdev          nan                       # Mem access latency (Unspecified)
system.caches.controllers8.xyzStatsObjectlatency::underflows            0                       # Mem access latency (Unspecified)
system.caches.controllers8.xyzStatsObjectlatency::0-49999            0                       # Mem access latency (Unspecified)
system.caches.controllers8.xyzStatsObjectlatency::50000-99999            0                       # Mem access latency (Unspecified)
system.caches.controllers8.xyzStatsObjectlatency::100000            0                       # Mem access latency (Unspecified)
system.caches.controllers8.xyzStatsObjectlatency::overflows            0                       # Mem access latency (Unspecified)
system.caches.controllers8.xyzStatsObjectlatency::min_value            0                       # Mem access latency (Unspecified)
system.caches.controllers8.xyzStatsObjectlatency::max_value            0                       # Mem access latency (Unspecified)
system.caches.controllers8.xyzStatsObjectlatency::total            0                       # Mem access latency (Unspecified)

---------- End Simulation Statistics   ----------
