
---------- Begin Simulation Statistics ----------
simSeconds                                   0.040526                       # Number of seconds simulated (Second)
simTicks                                  40525567000                       # Number of ticks simulated (Tick)
finalTick                                 40525567000                       # Number of ticks from beginning of simulation (restored from checkpoints and never reset) (Tick)
simFreq                                  1000000000000                       # The number of ticks per simulated second ((Tick/Second))
hostSeconds                                     30.93                       # Real time elapsed on the host (Second)
hostTickRate                               1310385865                       # The number of ticks simulated per host second (ticks/s) ((Tick/Second))
hostMemory                                    4955352                       # Number of bytes of host memory used (Byte)
simInsts                                     20711603                       # Number of instructions simulated (Count)
simOps                                       33228238                       # Number of ops (including micro ops) simulated (Count)
hostInstRate                                   669689                       # Simulator instruction rate (inst/s) ((Count/Second))
hostOpRate                                    1074396                       # Simulator op (including micro ops) rate (op/s) ((Count/Second))
system.caches.m_outstandReqHistSeqr::bucket_size            1                       (Unspecified)
system.caches.m_outstandReqHistSeqr::max_bucket            9                       (Unspecified)
system.caches.m_outstandReqHistSeqr::samples     32290443                       (Unspecified)
system.caches.m_outstandReqHistSeqr::mean            1                       (Unspecified)
system.caches.m_outstandReqHistSeqr::gmean            1                       (Unspecified)
system.caches.m_outstandReqHistSeqr      |           0      0.00%      0.00% |    32290443    100.00%    100.00% |           0      0.00%    100.00% |           0      0.00%    100.00% |           0      0.00%    100.00% |           0      0.00%    100.00% |           0      0.00%    100.00% |           0      0.00%    100.00% |           0      0.00%    100.00% |           0      0.00%    100.00% (Unspecified)
system.caches.m_outstandReqHistSeqr::total     32290443                       (Unspecified)
system.caches.m_latencyHistSeqr::bucket_size          128                       (Unspecified)
system.caches.m_latencyHistSeqr::max_bucket         1279                       (Unspecified)
system.caches.m_latencyHistSeqr::samples     32290443                       (Unspecified)
system.caches.m_latencyHistSeqr::mean        2.232271                       (Unspecified)
system.caches.m_latencyHistSeqr::gmean       1.081375                       (Unspecified)
system.caches.m_latencyHistSeqr::stdev      17.194264                       (Unspecified)
system.caches.m_latencyHistSeqr          |    32213125     99.76%     99.76% |       39218      0.12%     99.88% |       24173      0.07%     99.96% |        6415      0.02%     99.98% |        3507      0.01%     99.99% |        1732      0.01%     99.99% |        1223      0.00%    100.00% |        1027      0.00%    100.00% |          23      0.00%    100.00% |           0      0.00%    100.00% (Unspecified)
system.caches.m_latencyHistSeqr::total       32290443                       (Unspecified)
system.caches.m_hitLatencyHistSeqr::bucket_size            1                       (Unspecified)
system.caches.m_hitLatencyHistSeqr::max_bucket            9                       (Unspecified)
system.caches.m_hitLatencyHistSeqr::samples     31514232                       (Unspecified)
system.caches.m_hitLatencyHistSeqr::mean            1                       (Unspecified)
system.caches.m_hitLatencyHistSeqr::gmean            1                       (Unspecified)
system.caches.m_hitLatencyHistSeqr       |           0      0.00%      0.00% |    31514232    100.00%    100.00% |           0      0.00%    100.00% |           0      0.00%    100.00% |           0      0.00%    100.00% |           0      0.00%    100.00% |           0      0.00%    100.00% |           0      0.00%    100.00% |           0      0.00%    100.00% |           0      0.00%    100.00% (Unspecified)
system.caches.m_hitLatencyHistSeqr::total     31514232                       (Unspecified)
system.caches.m_missLatencyHistSeqr::bucket_size          128                       (Unspecified)
system.caches.m_missLatencyHistSeqr::max_bucket         1279                       (Unspecified)
system.caches.m_missLatencyHistSeqr::samples       776211                       (Unspecified)
system.caches.m_missLatencyHistSeqr::mean    52.262585                       (Unspecified)
system.caches.m_missLatencyHistSeqr::gmean    25.907409                       (Unspecified)
system.caches.m_missLatencyHistSeqr::stdev    98.661499                       (Unspecified)
system.caches.m_missLatencyHistSeqr      |      698893     90.04%     90.04% |       39218      5.05%     95.09% |       24173      3.11%     98.21% |        6415      0.83%     99.03% |        3507      0.45%     99.48% |        1732      0.22%     99.71% |        1223      0.16%     99.86% |        1027      0.13%    100.00% |          23      0.00%    100.00% |           0      0.00%    100.00% (Unspecified)
system.caches.m_missLatencyHistSeqr::total       776211                       (Unspecified)
system.caches.L0Cache_Controller.Load    |      884642     28.07%     28.07% |      636387     20.19%     48.26% |      821662     26.07%     74.34% |      808798     25.66%    100.00% (Unspecified)
system.caches.L0Cache_Controller.Load::total      3151489                       (Unspecified)
system.caches.L0Cache_Controller.Ifetch  |     7722605     27.29%     27.29% |     5856710     20.69%     47.98% |     7301056     25.80%     73.78% |     7420443     26.22%    100.00% (Unspecified)
system.caches.L0Cache_Controller.Ifetch::total     28300814                       (Unspecified)
system.caches.L0Cache_Controller.Store   |      264945     31.61%     31.61% |      168575     20.11%     51.72% |      166776     19.90%     71.62% |      237844     28.38%    100.00% (Unspecified)
system.caches.L0Cache_Controller.Store::total       838140                       (Unspecified)
system.caches.L0Cache_Controller.Replacement |      191504     29.74%     29.74% |      125376     19.47%     49.22% |      177853     27.62%     76.84% |      149122     23.16%    100.00% (Unspecified)
system.caches.L0Cache_Controller.Replacement::total       643855                       (Unspecified)
system.caches.L0Cache_Controller.Inv     |       88933     30.40%     30.40% |       54812     18.74%     49.14% |       79713     27.25%     76.39% |       69052     23.61%    100.00% (Unspecified)
system.caches.L0Cache_Controller.Inv::total       292510                       (Unspecified)
system.caches.L0Cache_Controller.Data    |      213931     30.41%     30.41% |      134750     19.15%     49.56% |      190940     27.14%     76.70% |      163950     23.30%    100.00% (Unspecified)
system.caches.L0Cache_Controller.Data::total       703571                       (Unspecified)
system.caches.L0Cache_Controller.ExData  |       17506     24.10%     24.10% |       15588     21.46%     45.56% |       21149     29.11%     74.67% |       18397     25.33%    100.00% (Unspecified)
system.caches.L0Cache_Controller.ExData::total        72640                       (Unspecified)
system.caches.L0Cache_Controller.I.Load  |      162600     27.40%     27.40% |      119501     20.13%     47.53% |      171260     28.86%     76.39% |      140147     23.61%    100.00% (Unspecified)
system.caches.L0Cache_Controller.I.Load::total       593508                       (Unspecified)
system.caches.L0Cache_Controller.I.Ifetch |       45020     41.37%     41.37% |       16971     15.59%     56.96% |       23324     21.43%     78.40% |       23509     21.60%    100.00% (Unspecified)
system.caches.L0Cache_Controller.I.Ifetch::total       108824                       (Unspecified)
system.caches.L0Cache_Controller.I.Store |       14930     33.32%     33.32% |        8225     18.36%     51.67% |       10727     23.94%     75.61% |       10927     24.39%    100.00% (Unspecified)
system.caches.L0Cache_Controller.I.Store::total        44809                       (Unspecified)
system.caches.L0Cache_Controller.I.Inv   |       57947     30.59%     30.59% |       35549     18.76%     49.35% |       52313     27.61%     76.96% |       43650     23.04%    100.00% (Unspecified)
system.caches.L0Cache_Controller.I.Inv::total       189459                       (Unspecified)
system.caches.L0Cache_Controller.IS_D.Data |      190114     30.19%     30.19% |      120884     19.20%     49.39% |      173435     27.54%     76.93% |      145259     23.07%    100.00% (Unspecified)
system.caches.L0Cache_Controller.IS_D.Data::total       629692                       (Unspecified)
system.caches.L0Cache_Controller.IS_D.ExData |       17506     24.10%     24.10% |       15588     21.46%     45.56% |       21149     29.11%     74.67% |       18397     25.33%    100.00% (Unspecified)
system.caches.L0Cache_Controller.IS_D.ExData::total        72640                       (Unspecified)
system.caches.L0Cache_Controller.IM_D.Data |       23817     32.24%     32.24% |       13866     18.77%     51.01% |       17505     23.69%     74.70% |       18691     25.30%    100.00% (Unspecified)
system.caches.L0Cache_Controller.IM_D.Data::total        73879                       (Unspecified)
system.caches.L0Cache_Controller.S.Load  |      395383     28.46%     28.46% |      278394     20.04%     48.50% |      359215     25.86%     74.36% |      356163     25.64%    100.00% (Unspecified)
system.caches.L0Cache_Controller.S.Load::total      1389155                       (Unspecified)
system.caches.L0Cache_Controller.S.Ifetch |     7677585     27.23%     27.23% |     5839739     20.71%     47.95% |     7277732     25.81%     73.76% |     7396934     26.24%    100.00% (Unspecified)
system.caches.L0Cache_Controller.S.Ifetch::total     28191990                       (Unspecified)
system.caches.L0Cache_Controller.S.Store |        8887     30.57%     30.57% |        5641     19.40%     49.98% |        6778     23.32%     73.29% |        7764     26.71%    100.00% (Unspecified)
system.caches.L0Cache_Controller.S.Store::total        29070                       (Unspecified)
system.caches.L0Cache_Controller.S.Replacement |      157442     30.43%     30.43% |       99968     19.32%     49.75% |      143434     27.72%     77.47% |      116586     22.53%    100.00% (Unspecified)
system.caches.L0Cache_Controller.S.Replacement::total       517430                       (Unspecified)
system.caches.L0Cache_Controller.S.Inv   |       23745     28.60%     28.60% |       15232     18.35%     46.95% |       23180     27.92%     74.87% |       20865     25.13%    100.00% (Unspecified)
system.caches.L0Cache_Controller.S.Inv::total        83022                       (Unspecified)
system.caches.L0Cache_Controller.M.Load  |      326659     27.95%     27.95% |      238492     20.40%     48.35% |      291187     24.91%     73.26% |      312488     26.74%    100.00% (Unspecified)
system.caches.L0Cache_Controller.M.Load::total      1168826                       (Unspecified)
system.caches.L0Cache_Controller.M.Store |      241128     31.55%     31.55% |      154709     20.24%     51.79% |      149271     19.53%     71.32% |      219153     28.68%    100.00% (Unspecified)
system.caches.L0Cache_Controller.M.Store::total       764261                       (Unspecified)
system.caches.L0Cache_Controller.M.Replacement |       34062     26.94%     26.94% |       25408     20.10%     47.04% |       34419     27.22%     74.26% |       32536     25.74%    100.00% (Unspecified)
system.caches.L0Cache_Controller.M.Replacement::total       126425                       (Unspecified)
system.caches.L0Cache_Controller.M.Inv   |        7241     36.15%     36.15% |        4031     20.13%     56.28% |        4220     21.07%     77.35% |        4537     22.65%    100.00% (Unspecified)
system.caches.L0Cache_Controller.M.Inv::total        20029                       (Unspecified)
system.caches.L1Cache_Controller.Load    |      207620     29.56%     29.56% |      136472     19.43%     48.99% |      194584     27.71%     76.70% |      163656     23.30%    100.00% (Unspecified)
system.caches.L1Cache_Controller.Load::total       702332                       (Unspecified)
system.caches.L1Cache_Controller.Store   |       23817     32.24%     32.24% |       13866     18.77%     51.01% |       17505     23.69%     74.70% |       18691     25.30%    100.00% (Unspecified)
system.caches.L1Cache_Controller.Store::total        73879                       (Unspecified)
system.caches.L1Cache_Controller.PutM    |       34062     26.94%     26.94% |       25408     20.10%     47.04% |       34419     27.22%     74.26% |       32536     25.74%    100.00% (Unspecified)
system.caches.L1Cache_Controller.PutM::total       126425                       (Unspecified)
system.caches.L1Cache_Controller.Replacement |      209467     30.59%     30.59% |      126803     18.52%     49.11% |      184334     26.92%     76.04% |      164083     23.96%    100.00% (Unspecified)
system.caches.L1Cache_Controller.Replacement::total       684687                       (Unspecified)
system.caches.L1Cache_Controller.FwdGetM |        6955     32.36%     32.36% |        5410     25.17%     57.54% |        4368     20.32%     77.86% |        4758     22.14%    100.00% (Unspecified)
system.caches.L1Cache_Controller.FwdGetM::total        21491                       (Unspecified)
system.caches.L1Cache_Controller.Inv     |         128     22.78%     22.78% |         104     18.51%     41.28% |         189     33.63%     74.91% |         141     25.09%    100.00% (Unspecified)
system.caches.L1Cache_Controller.Inv::total          562                       (Unspecified)
system.caches.L1Cache_Controller.PutAck  |      100475     30.32%     30.32% |       61710     18.62%     48.94% |       89768     27.09%     76.03% |       79454     23.97%    100.00% (Unspecified)
system.caches.L1Cache_Controller.PutAck::total       331407                       (Unspecified)
system.caches.L1Cache_Controller.DataDirNoAcks |      110317     30.31%     30.31% |       68082     18.70%     49.01% |       97485     26.78%     75.80% |       88101     24.20%    100.00% (Unspecified)
system.caches.L1Cache_Controller.DataDirNoAcks::total       363985                       (Unspecified)
system.caches.L1Cache_Controller.DataDirAcks |           0      0.00%      0.00% |           0      0.00%      0.00% |           0      0.00%      0.00% |           2    100.00%    100.00% (Unspecified)
system.caches.L1Cache_Controller.DataDirAcks::total            2                       (Unspecified)
system.caches.L1Cache_Controller.DataOwner |        3652     31.14%     31.14% |        2859     24.38%     55.52% |        2646     22.56%     78.08% |        2571     21.92%    100.00% (Unspecified)
system.caches.L1Cache_Controller.DataOwner::total        11728                       (Unspecified)
system.caches.L1Cache_Controller.InvAck  |         197     35.18%     35.18% |         105     18.75%     53.93% |          99     17.68%     71.61% |         159     28.39%    100.00% (Unspecified)
system.caches.L1Cache_Controller.InvAck::total          560                       (Unspecified)
system.caches.L1Cache_Controller.LastInvAck |           0      0.00%      0.00% |           0      0.00%      0.00% |           0      0.00%      0.00% |           2    100.00%    100.00% (Unspecified)
system.caches.L1Cache_Controller.LastInvAck::total            2                       (Unspecified)
system.caches.L1Cache_Controller.WB_Data |        7241     36.15%     36.15% |        4031     20.13%     56.28% |        4220     21.07%     77.35% |        4537     22.65%    100.00% (Unspecified)
system.caches.L1Cache_Controller.WB_Data::total        20029                       (Unspecified)
system.caches.L1Cache_Controller.I.Load  |       93799     29.99%     29.99% |       58975     18.86%     48.85% |       85266     27.26%     76.11% |       74731     23.89%    100.00% (Unspecified)
system.caches.L1Cache_Controller.I.Load::total       312771                       (Unspecified)
system.caches.L1Cache_Controller.I.Store |       10712     34.10%     34.10% |        5866     18.68%     52.78% |        7208     22.95%     75.73% |        7623     24.27%    100.00% (Unspecified)
system.caches.L1Cache_Controller.I.Store::total        31409                       (Unspecified)
system.caches.L1Cache_Controller.IS_D.FwdGetM |          11     25.00%     25.00% |          16     36.36%     61.36% |           5     11.36%     72.73% |          12     27.27%    100.00% (Unspecified)
system.caches.L1Cache_Controller.IS_D.FwdGetM::total           44                       (Unspecified)
system.caches.L1Cache_Controller.IS_D.DataDirNoAcks |       91249     29.98%     29.98% |       56980     18.72%     48.69% |       83248     27.35%     76.04% |       72931     23.96%    100.00% (Unspecified)
system.caches.L1Cache_Controller.IS_D.DataDirNoAcks::total       304408                       (Unspecified)
system.caches.L1Cache_Controller.IS_D.DataOwner |        2550     30.49%     30.49% |        1995     23.86%     54.35% |        2018     24.13%     78.48% |        1800     21.52%    100.00% (Unspecified)
system.caches.L1Cache_Controller.IS_D.DataOwner::total         8363                       (Unspecified)
system.caches.L1Cache_Controller.IM_AD.FwdGetM |          20     51.28%     51.28% |           3      7.69%     58.97% |           6     15.38%     74.36% |          10     25.64%    100.00% (Unspecified)
system.caches.L1Cache_Controller.IM_AD.FwdGetM::total           39                       (Unspecified)
system.caches.L1Cache_Controller.IM_AD.DataDirNoAcks |        9610     34.27%     34.27% |        5002     17.84%     52.10% |        6580     23.46%     75.57% |        6852     24.43%    100.00% (Unspecified)
system.caches.L1Cache_Controller.IM_AD.DataDirNoAcks::total        28044                       (Unspecified)
system.caches.L1Cache_Controller.IM_AD.DataOwner |        1102     32.75%     32.75% |         864     25.68%     58.42% |         628     18.66%     77.09% |         771     22.91%    100.00% (Unspecified)
system.caches.L1Cache_Controller.IM_AD.DataOwner::total         3365                       (Unspecified)
system.caches.L1Cache_Controller.IM_AD.InvAck |          35     29.66%     29.66% |          32     27.12%     56.78% |          21     17.80%     74.58% |          30     25.42%    100.00% (Unspecified)
system.caches.L1Cache_Controller.IM_AD.InvAck::total          118                       (Unspecified)
system.caches.L1Cache_Controller.S.Load  |       98865     30.39%     30.39% |       63904     19.65%     50.04% |       90187     27.73%     77.76% |       72328     22.24%    100.00% (Unspecified)
system.caches.L1Cache_Controller.S.Load::total       325284                       (Unspecified)
system.caches.L1Cache_Controller.S.Store |        9458     29.99%     29.99% |        6100     19.34%     49.34% |        7657     24.28%     73.62% |        8320     26.38%    100.00% (Unspecified)
system.caches.L1Cache_Controller.S.Store::total        31535                       (Unspecified)
system.caches.L1Cache_Controller.S.Replacement |       81560     30.00%     30.00% |       50677     18.64%     48.63% |       75303     27.69%     76.33% |       64371     23.67%    100.00% (Unspecified)
system.caches.L1Cache_Controller.S.Replacement::total       271911                       (Unspecified)
system.caches.L1Cache_Controller.S.Inv   |         128     22.78%     22.78% |         104     18.51%     41.28% |         189     33.63%     74.91% |         141     25.09%    100.00% (Unspecified)
system.caches.L1Cache_Controller.S.Inv::total          562                       (Unspecified)
system.caches.L1Cache_Controller.SM_AD.DataDirNoAcks |        9458     29.99%     29.99% |        6100     19.34%     49.34% |        7657     24.28%     73.62% |        8318     26.38%    100.00% (Unspecified)
system.caches.L1Cache_Controller.SM_AD.DataDirNoAcks::total        31533                       (Unspecified)
system.caches.L1Cache_Controller.SM_AD.DataDirAcks |           0      0.00%      0.00% |           0      0.00%      0.00% |           0      0.00%      0.00% |           2    100.00%    100.00% (Unspecified)
system.caches.L1Cache_Controller.SM_AD.DataDirAcks::total            2                       (Unspecified)
system.caches.L1Cache_Controller.SM_AD.InvAck |         162     36.65%     36.65% |          73     16.52%     53.17% |          78     17.65%     70.81% |         129     29.19%    100.00% (Unspecified)
system.caches.L1Cache_Controller.SM_AD.InvAck::total          442                       (Unspecified)
system.caches.L1Cache_Controller.SM_A.LastInvAck |           0      0.00%      0.00% |           0      0.00%      0.00% |           0      0.00%      0.00% |           2    100.00%    100.00% (Unspecified)
system.caches.L1Cache_Controller.SM_A.LastInvAck::total            2                       (Unspecified)
system.caches.L1Cache_Controller.M.Load  |       14956     23.27%     23.27% |       13593     21.15%     44.42% |       19131     29.76%     74.18% |       16597     25.82%    100.00% (Unspecified)
system.caches.L1Cache_Controller.M.Load::total        64277                       (Unspecified)
system.caches.L1Cache_Controller.M.Store |        3647     33.35%     33.35% |        1900     17.38%     50.73% |        2640     24.14%     74.87% |        2748     25.13%    100.00% (Unspecified)
system.caches.L1Cache_Controller.M.Store::total        10935                       (Unspecified)
system.caches.L1Cache_Controller.M.Replacement |       18915     31.79%     31.79% |       11033     18.54%     50.34% |       14465     24.31%     74.65% |       15083     25.35%    100.00% (Unspecified)
system.caches.L1Cache_Controller.M.Replacement::total        59496                       (Unspecified)
system.caches.L1Cache_Controller.M.FwdGetM |        3780     32.24%     32.24% |        2908     24.80%     57.05% |        2397     20.45%     77.49% |        2639     22.51%    100.00% (Unspecified)
system.caches.L1Cache_Controller.M.FwdGetM::total        11724                       (Unspecified)
system.caches.L1Cache_Controller.M_P.PutM |       34058     26.94%     26.94% |       25408     20.10%     47.04% |       34418     27.23%     74.27% |       32533     25.73%    100.00% (Unspecified)
system.caches.L1Cache_Controller.M_P.PutM::total       126417                       (Unspecified)
system.caches.L1Cache_Controller.M_P.Replacement |        4130     39.45%     39.45% |        1579     15.08%     54.53% |        2283     21.81%     76.34% |        2477     23.66%    100.00% (Unspecified)
system.caches.L1Cache_Controller.M_P.Replacement::total        10469                       (Unspecified)
system.caches.L1Cache_Controller.M_P.FwdGetM |        3115     32.56%     32.56% |        2452     25.63%     58.18% |        1938     20.26%     78.44% |        2063     21.56%    100.00% (Unspecified)
system.caches.L1Cache_Controller.M_P.FwdGetM::total         9568                       (Unspecified)
system.caches.L1Cache_Controller.MP_D.PutM |           4     50.00%     50.00% |           0      0.00%     50.00% |           1     12.50%     62.50% |           3     37.50%    100.00% (Unspecified)
system.caches.L1Cache_Controller.MP_D.PutM::total            8                       (Unspecified)
system.caches.L1Cache_Controller.MP_D.Replacement |        4136     39.44%     39.44% |        1579     15.06%     54.50% |        2286     21.80%     76.30% |        2485     23.70%    100.00% (Unspecified)
system.caches.L1Cache_Controller.MP_D.Replacement::total        10486                       (Unspecified)
system.caches.L1Cache_Controller.MP_D.FwdGetM |          28     25.00%     25.00% |          30     26.79%     51.79% |          21     18.75%     70.54% |          33     29.46%    100.00% (Unspecified)
system.caches.L1Cache_Controller.MP_D.FwdGetM::total          112                       (Unspecified)
system.caches.L1Cache_Controller.MP_D.WB_Data |        7241     36.15%     36.15% |        4031     20.13%     56.28% |        4220     21.07%     77.35% |        4537     22.65%    100.00% (Unspecified)
system.caches.L1Cache_Controller.MP_D.WB_Data::total        20029                       (Unspecified)
system.caches.L1Cache_Controller.MI_A.Replacement |       18953     31.77%     31.77% |       11064     18.55%     50.32% |       14518     24.34%     74.66% |       15116     25.34%    100.00% (Unspecified)
system.caches.L1Cache_Controller.MI_A.Replacement::total        59651                       (Unspecified)
system.caches.L1Cache_Controller.MI_A.FwdGetM |           1     25.00%     25.00% |           1     25.00%     50.00% |           1     25.00%     75.00% |           1     25.00%    100.00% (Unspecified)
system.caches.L1Cache_Controller.MI_A.FwdGetM::total            4                       (Unspecified)
system.caches.L1Cache_Controller.MI_A.PutAck |       18914     31.79%     31.79% |       11032     18.54%     50.34% |       14464     24.31%     74.65% |       15082     25.35%    100.00% (Unspecified)
system.caches.L1Cache_Controller.MI_A.PutAck::total        59492                       (Unspecified)
system.caches.L1Cache_Controller.SI_A.Replacement |       81773     29.99%     29.99% |       50871     18.66%     48.65% |       75479     27.68%     76.33% |       64551     23.67%    100.00% (Unspecified)
system.caches.L1Cache_Controller.SI_A.Replacement::total       272674                       (Unspecified)
system.caches.L1Cache_Controller.SI_A.PutAck |       81560     30.00%     30.00% |       50677     18.64%     48.63% |       75303     27.69%     76.33% |       64371     23.67%    100.00% (Unspecified)
system.caches.L1Cache_Controller.SI_A.PutAck::total       271911                       (Unspecified)
system.caches.L1Cache_Controller.II_A.PutAck |           1     25.00%     25.00% |           1     25.00%     50.00% |           1     25.00%     75.00% |           1     25.00%    100.00% (Unspecified)
system.caches.L1Cache_Controller.II_A.PutAck::total            4                       (Unspecified)
system.caches.Directory_Controller.GetS        312771      0.00%      0.00% (Unspecified)
system.caches.Directory_Controller.GetM         62944      0.00%      0.00% (Unspecified)
system.caches.Directory_Controller.PutSNotLast       121046      0.00%      0.00% (Unspecified)
system.caches.Directory_Controller.PutSLast       122443      0.00%      0.00% (Unspecified)
system.caches.Directory_Controller.PutSLastWT        28422      0.00%      0.00% (Unspecified)
system.caches.Directory_Controller.PutMOwner        46194      0.00%      0.00% (Unspecified)
system.caches.Directory_Controller.PutMOwnerWT        13298      0.00%      0.00% (Unspecified)
system.caches.Directory_Controller.PutMNonOwner            4      0.00%      0.00% (Unspecified)
system.caches.Directory_Controller.Sync          7863      0.00%      0.00% (Unspecified)
system.caches.Directory_Controller.MemData        35783      0.00%      0.00% (Unspecified)
system.caches.Directory_Controller.LastMemAck        49583      0.00%      0.00% (Unspecified)
system.caches.Directory_Controller.I.GetS        23993      0.00%      0.00% (Unspecified)
system.caches.Directory_Controller.I.GetM        11790      0.00%      0.00% (Unspecified)
system.caches.Directory_Controller.S.GetS       121687      0.00%      0.00% (Unspecified)
system.caches.Directory_Controller.S.GetM        31640      0.00%      0.00% (Unspecified)
system.caches.Directory_Controller.S.PutSNotLast       121046      0.00%      0.00% (Unspecified)
system.caches.Directory_Controller.S.PutSLast       122443      0.00%      0.00% (Unspecified)
system.caches.Directory_Controller.S.PutSLastWT        28422      0.00%      0.00% (Unspecified)
system.caches.Directory_Controller.M.GetS         8363      0.00%      0.00% (Unspecified)
system.caches.Directory_Controller.M.GetM         3365      0.00%      0.00% (Unspecified)
system.caches.Directory_Controller.M.PutMOwner        46194      0.00%      0.00% (Unspecified)
system.caches.Directory_Controller.M.PutMOwnerWT        13298      0.00%      0.00% (Unspecified)
system.caches.Directory_Controller.M.PutMNonOwner            4      0.00%      0.00% (Unspecified)
system.caches.Directory_Controller.LLCOnly.GetS       158728      0.00%      0.00% (Unspecified)
system.caches.Directory_Controller.LLCOnly.GetM        16149      0.00%      0.00% (Unspecified)
system.caches.Directory_Controller.LLCOnly.Sync         7863      0.00%      0.00% (Unspecified)
system.caches.Directory_Controller.LLCOnly_m.LastMemAck        36285      0.00%      0.00% (Unspecified)
system.caches.Directory_Controller.S_m.MemData        23993      0.00%      0.00% (Unspecified)
system.caches.Directory_Controller.M_m.MemData        11790      0.00%      0.00% (Unspecified)
system.caches.Directory_Controller.MI_m.LastMemAck        13298      0.00%      0.00% (Unspecified)
system.caches.RequestType.LD.latency_hist_seqr::bucket_size          128                       (Unspecified)
system.caches.RequestType.LD.latency_hist_seqr::max_bucket         1279                       (Unspecified)
system.caches.RequestType.LD.latency_hist_seqr::samples      3151489                       (Unspecified)
system.caches.RequestType.LD.latency_hist_seqr::mean     8.086893                       (Unspecified)
system.caches.RequestType.LD.latency_hist_seqr::gmean     1.783826                       (Unspecified)
system.caches.RequestType.LD.latency_hist_seqr::stdev    33.668279                       (Unspecified)
system.caches.RequestType.LD.latency_hist_seqr |     3113676     98.80%     98.80% |       20823      0.66%     99.46% |       11769      0.37%     99.83% |        3363      0.11%     99.94% |        1361      0.04%     99.98% |         384      0.01%    100.00% |          88      0.00%    100.00% |          24      0.00%    100.00% |           1      0.00%    100.00% |           0      0.00%    100.00% (Unspecified)
system.caches.RequestType.LD.latency_hist_seqr::total      3151489                       (Unspecified)
system.caches.RequestType.LD.hit_latency_hist_seqr::bucket_size            1                       (Unspecified)
system.caches.RequestType.LD.hit_latency_hist_seqr::max_bucket            9                       (Unspecified)
system.caches.RequestType.LD.hit_latency_hist_seqr::samples      2557981                       (Unspecified)
system.caches.RequestType.LD.hit_latency_hist_seqr::mean            1                       (Unspecified)
system.caches.RequestType.LD.hit_latency_hist_seqr::gmean            1                       (Unspecified)
system.caches.RequestType.LD.hit_latency_hist_seqr |           0      0.00%      0.00% |     2557981    100.00%    100.00% |           0      0.00%    100.00% |           0      0.00%    100.00% |           0      0.00%    100.00% |           0      0.00%    100.00% |           0      0.00%    100.00% |           0      0.00%    100.00% |           0      0.00%    100.00% |           0      0.00%    100.00% (Unspecified)
system.caches.RequestType.LD.hit_latency_hist_seqr::total      2557981                       (Unspecified)
system.caches.RequestType.LD.miss_latency_hist_seqr::bucket_size          128                       (Unspecified)
system.caches.RequestType.LD.miss_latency_hist_seqr::max_bucket         1279                       (Unspecified)
system.caches.RequestType.LD.miss_latency_hist_seqr::samples       593508                       (Unspecified)
system.caches.RequestType.LD.miss_latency_hist_seqr::mean    38.630942                       (Unspecified)
system.caches.RequestType.LD.miss_latency_hist_seqr::gmean    21.610551                       (Unspecified)
system.caches.RequestType.LD.miss_latency_hist_seqr::stdev    69.783220                       (Unspecified)
system.caches.RequestType.LD.miss_latency_hist_seqr |      555695     93.63%     93.63% |       20823      3.51%     97.14% |       11769      1.98%     99.12% |        3363      0.57%     99.69% |        1361      0.23%     99.92% |         384      0.06%     99.98% |          88      0.01%    100.00% |          24      0.00%    100.00% |           1      0.00%    100.00% |           0      0.00%    100.00% (Unspecified)
system.caches.RequestType.LD.miss_latency_hist_seqr::total       593508                       (Unspecified)
system.caches.RequestType.ST.latency_hist_seqr::bucket_size          128                       (Unspecified)
system.caches.RequestType.ST.latency_hist_seqr::max_bucket         1279                       (Unspecified)
system.caches.RequestType.ST.latency_hist_seqr::samples       776666                       (Unspecified)
system.caches.RequestType.ST.latency_hist_seqr::mean    10.647841                       (Unspecified)
system.caches.RequestType.ST.latency_hist_seqr::gmean     1.399250                       (Unspecified)
system.caches.RequestType.ST.latency_hist_seqr::stdev    63.813696                       (Unspecified)
system.caches.RequestType.ST.latency_hist_seqr |      760708     97.95%     97.95% |        6411      0.83%     98.77% |        4541      0.58%     99.36% |        1209      0.16%     99.51% |        1026      0.13%     99.64% |         924      0.12%     99.76% |         931      0.12%     99.88% |         897      0.12%    100.00% |          19      0.00%    100.00% |           0      0.00%    100.00% (Unspecified)
system.caches.RequestType.ST.latency_hist_seqr::total       776666                       (Unspecified)
system.caches.RequestType.ST.hit_latency_hist_seqr::bucket_size            1                       (Unspecified)
system.caches.RequestType.ST.hit_latency_hist_seqr::max_bucket            9                       (Unspecified)
system.caches.RequestType.ST.hit_latency_hist_seqr::samples       709714                       (Unspecified)
system.caches.RequestType.ST.hit_latency_hist_seqr::mean            1                       (Unspecified)
system.caches.RequestType.ST.hit_latency_hist_seqr::gmean            1                       (Unspecified)
system.caches.RequestType.ST.hit_latency_hist_seqr |           0      0.00%      0.00% |      709714    100.00%    100.00% |           0      0.00%    100.00% |           0      0.00%    100.00% |           0      0.00%    100.00% |           0      0.00%    100.00% |           0      0.00%    100.00% |           0      0.00%    100.00% |           0      0.00%    100.00% |           0      0.00%    100.00% (Unspecified)
system.caches.RequestType.ST.hit_latency_hist_seqr::total       709714                       (Unspecified)
system.caches.RequestType.ST.miss_latency_hist_seqr::bucket_size          128                       (Unspecified)
system.caches.RequestType.ST.miss_latency_hist_seqr::max_bucket         1279                       (Unspecified)
system.caches.RequestType.ST.miss_latency_hist_seqr::samples        66952                       (Unspecified)
system.caches.RequestType.ST.miss_latency_hist_seqr::mean   112.918240                       (Unspecified)
system.caches.RequestType.ST.miss_latency_hist_seqr::gmean    49.253320                       (Unspecified)
system.caches.RequestType.ST.miss_latency_hist_seqr::stdev   189.191214                       (Unspecified)
system.caches.RequestType.ST.miss_latency_hist_seqr |       50994     76.17%     76.17% |        6411      9.58%     85.74% |        4541      6.78%     92.52% |        1209      1.81%     94.33% |        1026      1.53%     95.86% |         924      1.38%     97.24% |         931      1.39%     98.63% |         897      1.34%     99.97% |          19      0.03%    100.00% |           0      0.00%    100.00% (Unspecified)
system.caches.RequestType.ST.miss_latency_hist_seqr::total        66952                       (Unspecified)
system.caches.RequestType.IFETCH.latency_hist_seqr::bucket_size          128                       (Unspecified)
system.caches.RequestType.IFETCH.latency_hist_seqr::max_bucket         1279                       (Unspecified)
system.caches.RequestType.IFETCH.latency_hist_seqr::samples     28300814                       (Unspecified)
system.caches.RequestType.IFETCH.latency_hist_seqr::mean     1.337554                       (Unspecified)
system.caches.RequestType.IFETCH.latency_hist_seqr::gmean     1.014806                       (Unspecified)
system.caches.RequestType.IFETCH.latency_hist_seqr::stdev     9.504285                       (Unspecified)
system.caches.RequestType.IFETCH.latency_hist_seqr |    28278095     99.92%     99.92% |       11500      0.04%     99.96% |        7615      0.03%     99.99% |        1770      0.01%     99.99% |        1100      0.00%    100.00% |         421      0.00%    100.00% |         204      0.00%    100.00% |         106      0.00%    100.00% |           3      0.00%    100.00% |           0      0.00%    100.00% (Unspecified)
system.caches.RequestType.IFETCH.latency_hist_seqr::total     28300814                       (Unspecified)
system.caches.RequestType.IFETCH.hit_latency_hist_seqr::bucket_size            1                       (Unspecified)
system.caches.RequestType.IFETCH.hit_latency_hist_seqr::max_bucket            9                       (Unspecified)
system.caches.RequestType.IFETCH.hit_latency_hist_seqr::samples     28191990                       (Unspecified)
system.caches.RequestType.IFETCH.hit_latency_hist_seqr::mean            1                       (Unspecified)
system.caches.RequestType.IFETCH.hit_latency_hist_seqr::gmean            1                       (Unspecified)
system.caches.RequestType.IFETCH.hit_latency_hist_seqr |           0      0.00%      0.00% |    28191990    100.00%    100.00% |           0      0.00%    100.00% |           0      0.00%    100.00% |           0      0.00%    100.00% |           0      0.00%    100.00% |           0      0.00%    100.00% |           0      0.00%    100.00% |           0      0.00%    100.00% |           0      0.00%    100.00% (Unspecified)
system.caches.RequestType.IFETCH.hit_latency_hist_seqr::total     28191990                       (Unspecified)
system.caches.RequestType.IFETCH.miss_latency_hist_seqr::bucket_size          128                       (Unspecified)
system.caches.RequestType.IFETCH.miss_latency_hist_seqr::max_bucket         1279                       (Unspecified)
system.caches.RequestType.IFETCH.miss_latency_hist_seqr::samples       108824                       (Unspecified)
system.caches.RequestType.IFETCH.miss_latency_hist_seqr::mean    88.784478                       (Unspecified)
system.caches.RequestType.IFETCH.miss_latency_hist_seqr::gmean    45.702179                       (Unspecified)
system.caches.RequestType.IFETCH.miss_latency_hist_seqr::stdev   125.758870                       (Unspecified)
system.caches.RequestType.IFETCH.miss_latency_hist_seqr |       86105     79.12%     79.12% |       11500     10.57%     89.69% |        7615      7.00%     96.69% |        1770      1.63%     98.31% |        1100      1.01%     99.33% |         421      0.39%     99.71% |         204      0.19%     99.90% |         106      0.10%    100.00% |           3      0.00%    100.00% |           0      0.00%    100.00% (Unspecified)
system.caches.RequestType.IFETCH.miss_latency_hist_seqr::total       108824                       (Unspecified)
system.caches.RequestType.RMW_Read.latency_hist_seqr::bucket_size           64                       (Unspecified)
system.caches.RequestType.RMW_Read.latency_hist_seqr::max_bucket          639                       (Unspecified)
system.caches.RequestType.RMW_Read.latency_hist_seqr::samples        21348                       (Unspecified)
system.caches.RequestType.RMW_Read.latency_hist_seqr::mean     7.351087                       (Unspecified)
system.caches.RequestType.RMW_Read.latency_hist_seqr::gmean     1.414144                       (Unspecified)
system.caches.RequestType.RMW_Read.latency_hist_seqr::stdev    33.980221                       (Unspecified)
system.caches.RequestType.RMW_Read.latency_hist_seqr |       20959     98.18%     98.18% |          40      0.19%     98.37% |         126      0.59%     98.96% |          85      0.40%     99.35% |          70      0.33%     99.68% |          38      0.18%     99.86% |          13      0.06%     99.92% |          12      0.06%     99.98% |           5      0.02%    100.00% |           0      0.00%    100.00% (Unspecified)
system.caches.RequestType.RMW_Read.latency_hist_seqr::total        21348                       (Unspecified)
system.caches.RequestType.RMW_Read.hit_latency_hist_seqr::bucket_size            1                       (Unspecified)
system.caches.RequestType.RMW_Read.hit_latency_hist_seqr::max_bucket            9                       (Unspecified)
system.caches.RequestType.RMW_Read.hit_latency_hist_seqr::samples        19364                       (Unspecified)
system.caches.RequestType.RMW_Read.hit_latency_hist_seqr::mean            1                       (Unspecified)
system.caches.RequestType.RMW_Read.hit_latency_hist_seqr::gmean            1                       (Unspecified)
system.caches.RequestType.RMW_Read.hit_latency_hist_seqr |           0      0.00%      0.00% |       19364    100.00%    100.00% |           0      0.00%    100.00% |           0      0.00%    100.00% |           0      0.00%    100.00% |           0      0.00%    100.00% |           0      0.00%    100.00% |           0      0.00%    100.00% |           0      0.00%    100.00% |           0      0.00%    100.00% (Unspecified)
system.caches.RequestType.RMW_Read.hit_latency_hist_seqr::total        19364                       (Unspecified)
system.caches.RequestType.RMW_Read.miss_latency_hist_seqr::bucket_size           64                       (Unspecified)
system.caches.RequestType.RMW_Read.miss_latency_hist_seqr::max_bucket          639                       (Unspecified)
system.caches.RequestType.RMW_Read.miss_latency_hist_seqr::samples         1984                       (Unspecified)
system.caches.RequestType.RMW_Read.miss_latency_hist_seqr::mean    69.338206                       (Unspecified)
system.caches.RequestType.RMW_Read.miss_latency_hist_seqr::gmean    41.621943                       (Unspecified)
system.caches.RequestType.RMW_Read.miss_latency_hist_seqr::stdev    90.507701                       (Unspecified)
system.caches.RequestType.RMW_Read.miss_latency_hist_seqr |        1595     80.39%     80.39% |          40      2.02%     82.41% |         126      6.35%     88.76% |          85      4.28%     93.04% |          70      3.53%     96.57% |          38      1.92%     98.49% |          13      0.66%     99.14% |          12      0.60%     99.75% |           5      0.25%    100.00% |           0      0.00%    100.00% (Unspecified)
system.caches.RequestType.RMW_Read.miss_latency_hist_seqr::total         1984                       (Unspecified)
system.caches.RequestType.Locked_RMW_Read.latency_hist_seqr::bucket_size          128                       (Unspecified)
system.caches.RequestType.Locked_RMW_Read.latency_hist_seqr::max_bucket         1279                       (Unspecified)
system.caches.RequestType.Locked_RMW_Read.latency_hist_seqr::samples        20063                       (Unspecified)
system.caches.RequestType.Locked_RMW_Read.latency_hist_seqr::mean    14.683198                       (Unspecified)
system.caches.RequestType.Locked_RMW_Read.latency_hist_seqr::gmean     2.451941                       (Unspecified)
system.caches.RequestType.Locked_RMW_Read.latency_hist_seqr::stdev    45.121787                       (Unspecified)
system.caches.RequestType.Locked_RMW_Read.latency_hist_seqr |       19584     97.61%     97.61% |         273      1.36%     98.97% |         140      0.70%     99.67% |          48      0.24%     99.91% |          15      0.07%     99.99% |           3      0.01%    100.00% |           0      0.00%    100.00% |           0      0.00%    100.00% |           0      0.00%    100.00% |           0      0.00%    100.00% (Unspecified)
system.caches.RequestType.Locked_RMW_Read.latency_hist_seqr::total        20063                       (Unspecified)
system.caches.RequestType.Locked_RMW_Read.hit_latency_hist_seqr::bucket_size            1                       (Unspecified)
system.caches.RequestType.Locked_RMW_Read.hit_latency_hist_seqr::max_bucket            9                       (Unspecified)
system.caches.RequestType.Locked_RMW_Read.hit_latency_hist_seqr::samples        15120                       (Unspecified)
system.caches.RequestType.Locked_RMW_Read.hit_latency_hist_seqr::mean            1                       (Unspecified)
system.caches.RequestType.Locked_RMW_Read.hit_latency_hist_seqr::gmean            1                       (Unspecified)
system.caches.RequestType.Locked_RMW_Read.hit_latency_hist_seqr |           0      0.00%      0.00% |       15120    100.00%    100.00% |           0      0.00%    100.00% |           0      0.00%    100.00% |           0      0.00%    100.00% |           0      0.00%    100.00% |           0      0.00%    100.00% |           0      0.00%    100.00% |           0      0.00%    100.00% |           0      0.00%    100.00% (Unspecified)
system.caches.RequestType.Locked_RMW_Read.hit_latency_hist_seqr::total        15120                       (Unspecified)
system.caches.RequestType.Locked_RMW_Read.miss_latency_hist_seqr::bucket_size          128                       (Unspecified)
system.caches.RequestType.Locked_RMW_Read.miss_latency_hist_seqr::max_bucket         1279                       (Unspecified)
system.caches.RequestType.Locked_RMW_Read.miss_latency_hist_seqr::samples         4943                       (Unspecified)
system.caches.RequestType.Locked_RMW_Read.miss_latency_hist_seqr::mean    56.538337                       (Unspecified)
system.caches.RequestType.Locked_RMW_Read.miss_latency_hist_seqr::gmean    38.104062                       (Unspecified)
system.caches.RequestType.Locked_RMW_Read.miss_latency_hist_seqr::stdev    77.071317                       (Unspecified)
system.caches.RequestType.Locked_RMW_Read.miss_latency_hist_seqr |        4464     90.31%     90.31% |         273      5.52%     95.83% |         140      2.83%     98.66% |          48      0.97%     99.64% |          15      0.30%     99.94% |           3      0.06%    100.00% |           0      0.00%    100.00% |           0      0.00%    100.00% |           0      0.00%    100.00% |           0      0.00%    100.00% (Unspecified)
system.caches.RequestType.Locked_RMW_Read.miss_latency_hist_seqr::total         4943                       (Unspecified)
system.caches.RequestType.Locked_RMW_Write.latency_hist_seqr::bucket_size            1                       (Unspecified)
system.caches.RequestType.Locked_RMW_Write.latency_hist_seqr::max_bucket            9                       (Unspecified)
system.caches.RequestType.Locked_RMW_Write.latency_hist_seqr::samples        20063                       (Unspecified)
system.caches.RequestType.Locked_RMW_Write.latency_hist_seqr::mean            1                       (Unspecified)
system.caches.RequestType.Locked_RMW_Write.latency_hist_seqr::gmean            1                       (Unspecified)
system.caches.RequestType.Locked_RMW_Write.latency_hist_seqr |           0      0.00%      0.00% |       20063    100.00%    100.00% |           0      0.00%    100.00% |           0      0.00%    100.00% |           0      0.00%    100.00% |           0      0.00%    100.00% |           0      0.00%    100.00% |           0      0.00%    100.00% |           0      0.00%    100.00% |           0      0.00%    100.00% (Unspecified)
system.caches.RequestType.Locked_RMW_Write.latency_hist_seqr::total        20063                       (Unspecified)
system.caches.RequestType.Locked_RMW_Write.hit_latency_hist_seqr::bucket_size            1                       (Unspecified)
system.caches.RequestType.Locked_RMW_Write.hit_latency_hist_seqr::max_bucket            9                       (Unspecified)
system.caches.RequestType.Locked_RMW_Write.hit_latency_hist_seqr::samples        20063                       (Unspecified)
system.caches.RequestType.Locked_RMW_Write.hit_latency_hist_seqr::mean            1                       (Unspecified)
system.caches.RequestType.Locked_RMW_Write.hit_latency_hist_seqr::gmean            1                       (Unspecified)
system.caches.RequestType.Locked_RMW_Write.hit_latency_hist_seqr |           0      0.00%      0.00% |       20063    100.00%    100.00% |           0      0.00%    100.00% |           0      0.00%    100.00% |           0      0.00%    100.00% |           0      0.00%    100.00% |           0      0.00%    100.00% |           0      0.00%    100.00% |           0      0.00%    100.00% |           0      0.00%    100.00% (Unspecified)
system.caches.RequestType.Locked_RMW_Write.hit_latency_hist_seqr::total        20063                       (Unspecified)
system.caches.controllers0.DCache.m_demand_hits            0                       # Number of cache demand hits (Unspecified)
system.caches.controllers0.DCache.m_demand_misses            0                       # Number of cache demand misses (Unspecified)
system.caches.controllers0.DCache.m_demand_accesses            0                       # Number of cache demand accesses (Unspecified)
system.caches.controllers0.ICache.m_demand_hits            0                       # Number of cache demand hits (Unspecified)
system.caches.controllers0.ICache.m_demand_misses            0                       # Number of cache demand misses (Unspecified)
system.caches.controllers0.ICache.m_demand_accesses            0                       # Number of cache demand accesses (Unspecified)
system.caches.controllers0.forwardFromL1.m_buf_msgs     7.312210                       # Average number of messages in buffer (Unspecified)
system.caches.controllers0.forwardFromL1.m_stall_time  5000.022677                       # Average number of cycles messages are stalled in this MB (Unspecified)
system.caches.controllers0.mandatoryQueue.m_buf_msgs     0.218928                       # Average number of messages in buffer (Unspecified)
system.caches.controllers0.mandatoryQueue.m_stall_time   999.999975                       # Average number of cycles messages are stalled in this MB (Unspecified)
system.caches.controllers0.power_state.pwrStateResidencyTicks::UNDEFINED  40525567000                       # Cumulative time (in ticks) in various power states (Tick)
system.caches.controllers0.requestToL1.m_buf_msgs     0.006551                       # Average number of messages in buffer (Unspecified)
system.caches.controllers0.requestToL1.m_stall_time   999.999951                       # Average number of cycles messages are stalled in this MB (Unspecified)
system.caches.controllers0.responseFromL1.m_buf_msgs     0.005711                       # Average number of messages in buffer (Unspecified)
system.caches.controllers0.responseFromL1.m_stall_time  4999.983837                       # Average number of cycles messages are stalled in this MB (Unspecified)
system.caches.controllers0.responseToL1.m_buf_msgs     0.000179                       # Average number of messages in buffer (Unspecified)
system.caches.controllers0.responseToL1.m_stall_time   999.609432                       # Average number of cycles messages are stalled in this MB (Unspecified)
system.caches.controllers0.xyzStatsObject.power_state.pwrStateResidencyTicks::UNDEFINED  40525567000                       # Cumulative time (in ticks) in various power states (Tick)
system.caches.controllers1.DCache.m_demand_hits            0                       # Number of cache demand hits (Unspecified)
system.caches.controllers1.DCache.m_demand_misses            0                       # Number of cache demand misses (Unspecified)
system.caches.controllers1.DCache.m_demand_accesses            0                       # Number of cache demand accesses (Unspecified)
system.caches.controllers1.ICache.m_demand_hits            0                       # Number of cache demand hits (Unspecified)
system.caches.controllers1.ICache.m_demand_misses            0                       # Number of cache demand misses (Unspecified)
system.caches.controllers1.ICache.m_demand_accesses            0                       # Number of cache demand accesses (Unspecified)
system.caches.controllers1.forwardFromL1.m_buf_msgs     5.504756                       # Average number of messages in buffer (Unspecified)
system.caches.controllers1.forwardFromL1.m_stall_time  4040.532783                       # Average number of cycles messages are stalled in this MB (Unspecified)
system.caches.controllers1.mandatoryQueue.m_buf_msgs     0.164382                       # Average number of messages in buffer (Unspecified)
system.caches.controllers1.mandatoryQueue.m_stall_time   808.111704                       # Average number of cycles messages are stalled in this MB (Unspecified)
system.caches.controllers1.power_state.pwrStateResidencyTicks::UNDEFINED  40525567000                       # Cumulative time (in ticks) in various power states (Tick)
system.caches.controllers1.requestToL1.m_buf_msgs     0.004337                       # Average number of messages in buffer (Unspecified)
system.caches.controllers1.requestToL1.m_stall_time   808.111679                       # Average number of cycles messages are stalled in this MB (Unspecified)
system.caches.controllers1.responseFromL1.m_buf_msgs     0.003710                       # Average number of messages in buffer (Unspecified)
system.caches.controllers1.responseFromL1.m_stall_time  4040.555065                       # Average number of cycles messages are stalled in this MB (Unspecified)
system.caches.controllers1.responseToL1.m_buf_msgs     0.000099                       # Average number of messages in buffer (Unspecified)
system.caches.controllers1.responseToL1.m_stall_time   807.277440                       # Average number of cycles messages are stalled in this MB (Unspecified)
system.caches.controllers1.xyzStatsObject.power_state.pwrStateResidencyTicks::UNDEFINED  40525567000                       # Cumulative time (in ticks) in various power states (Tick)
system.caches.controllers2.DCache.m_demand_hits            0                       # Number of cache demand hits (Unspecified)
system.caches.controllers2.DCache.m_demand_misses            0                       # Number of cache demand misses (Unspecified)
system.caches.controllers2.DCache.m_demand_accesses            0                       # Number of cache demand accesses (Unspecified)
system.caches.controllers2.ICache.m_demand_hits            0                       # Number of cache demand hits (Unspecified)
system.caches.controllers2.ICache.m_demand_misses            0                       # Number of cache demand misses (Unspecified)
system.caches.controllers2.ICache.m_demand_accesses            0                       # Number of cache demand accesses (Unspecified)
system.caches.controllers2.forwardFromL1.m_buf_msgs     4.840034                       # Average number of messages in buffer (Unspecified)
system.caches.controllers2.forwardFromL1.m_stall_time  4034.003645                       # Average number of cycles messages are stalled in this MB (Unspecified)
system.caches.controllers2.mandatoryQueue.m_buf_msgs     0.204550                       # Average number of messages in buffer (Unspecified)
system.caches.controllers2.mandatoryQueue.m_stall_time   806.791180                       # Average number of cycles messages are stalled in this MB (Unspecified)
system.caches.controllers2.power_state.pwrStateResidencyTicks::UNDEFINED  40525567000                       # Cumulative time (in ticks) in various power states (Tick)
system.caches.controllers2.requestToL1.m_buf_msgs     0.006083                       # Average number of messages in buffer (Unspecified)
system.caches.controllers2.requestToL1.m_stall_time   806.791155                       # Average number of cycles messages are stalled in this MB (Unspecified)
system.caches.controllers2.responseFromL1.m_buf_msgs     0.005233                       # Average number of messages in buffer (Unspecified)
system.caches.controllers2.responseFromL1.m_stall_time  4033.939858                       # Average number of cycles messages are stalled in this MB (Unspecified)
system.caches.controllers2.responseToL1.m_buf_msgs     0.000104                       # Average number of messages in buffer (Unspecified)
system.caches.controllers2.responseToL1.m_stall_time   806.478389                       # Average number of cycles messages are stalled in this MB (Unspecified)
system.caches.controllers2.xyzStatsObject.power_state.pwrStateResidencyTicks::UNDEFINED  40525567000                       # Cumulative time (in ticks) in various power states (Tick)
system.caches.controllers3.DCache.m_demand_hits            0                       # Number of cache demand hits (Unspecified)
system.caches.controllers3.DCache.m_demand_misses            0                       # Number of cache demand misses (Unspecified)
system.caches.controllers3.DCache.m_demand_accesses            0                       # Number of cache demand accesses (Unspecified)
system.caches.controllers3.ICache.m_demand_hits            0                       # Number of cache demand hits (Unspecified)
system.caches.controllers3.ICache.m_demand_misses            0                       # Number of cache demand misses (Unspecified)
system.caches.controllers3.ICache.m_demand_accesses            0                       # Number of cache demand accesses (Unspecified)
system.caches.controllers3.forwardFromL1.m_buf_msgs     2.110862                       # Average number of messages in buffer (Unspecified)
system.caches.controllers3.forwardFromL1.m_stall_time  4026.215451                       # Average number of cycles messages are stalled in this MB (Unspecified)
system.caches.controllers3.mandatoryQueue.m_buf_msgs     0.208932                       # Average number of messages in buffer (Unspecified)
system.caches.controllers3.mandatoryQueue.m_stall_time   805.372470                       # Average number of cycles messages are stalled in this MB (Unspecified)
system.caches.controllers3.power_state.pwrStateResidencyTicks::UNDEFINED  40525567000                       # Cumulative time (in ticks) in various power states (Tick)
system.caches.controllers3.requestToL1.m_buf_msgs     0.005302                       # Average number of messages in buffer (Unspecified)
system.caches.controllers3.requestToL1.m_stall_time   805.372446                       # Average number of cycles messages are stalled in this MB (Unspecified)
system.caches.controllers3.responseFromL1.m_buf_msgs     0.004500                       # Average number of messages in buffer (Unspecified)
system.caches.controllers3.responseFromL1.m_stall_time  4026.816331                       # Average number of cycles messages are stalled in this MB (Unspecified)
system.caches.controllers3.responseToL1.m_buf_msgs     0.000112                       # Average number of messages in buffer (Unspecified)
system.caches.controllers3.responseToL1.m_stall_time   804.591531                       # Average number of cycles messages are stalled in this MB (Unspecified)
system.caches.controllers3.xyzStatsObject.power_state.pwrStateResidencyTicks::UNDEFINED  40525567000                       # Cumulative time (in ticks) in various power states (Tick)
system.caches.controllers4.cacheMemory.m_demand_hits            0                       # Number of cache demand hits (Unspecified)
system.caches.controllers4.cacheMemory.m_demand_misses            0                       # Number of cache demand misses (Unspecified)
system.caches.controllers4.cacheMemory.m_demand_accesses            0                       # Number of cache demand accesses (Unspecified)
system.caches.controllers4.forwardFromDir.m_buf_msgs     0.003354                       # Average number of messages in buffer (Unspecified)
system.caches.controllers4.forwardFromDir.m_stall_time  5846.485035                       # Average number of cycles messages are stalled in this MB (Unspecified)
system.caches.controllers4.forwardFromDir.m_stall_count         3174                       # Number of times messages were stalled (Unspecified)
system.caches.controllers4.forwardToL0.m_buf_msgs     0.002194                       # Average number of messages in buffer (Unspecified)
system.caches.controllers4.forwardToL0.m_stall_time   999.778288                       # Average number of cycles messages are stalled in this MB (Unspecified)
system.caches.controllers4.power_state.pwrStateResidencyTicks::UNDEFINED  40525567000                       # Cumulative time (in ticks) in various power states (Tick)
system.caches.controllers4.requestFromL0.m_buf_msgs     0.057319                       # Average number of messages in buffer (Unspecified)
system.caches.controllers4.requestFromL0.m_stall_time 19586.422270                       # Average number of cycles messages are stalled in this MB (Unspecified)
system.caches.controllers4.requestFromL0.m_stall_count       104862                       # Number of times messages were stalled (Unspecified)
system.caches.controllers4.requestToDir.m_buf_msgs     0.005292                       # Average number of messages in buffer (Unspecified)
system.caches.controllers4.requestToDir.m_stall_time   999.999827                       # Average number of cycles messages are stalled in this MB (Unspecified)
system.caches.controllers4.responseFromDirOrSibling.m_buf_msgs     0.002817                       # Average number of messages in buffer (Unspecified)
system.caches.controllers4.responseFromDirOrSibling.m_stall_time 12737.252338                       # Average number of cycles messages are stalled in this MB (Unspecified)
system.caches.controllers4.responseFromL0.m_buf_msgs     0.000179                       # Average number of messages in buffer (Unspecified)
system.caches.controllers4.responseFromL0.m_stall_time  4998.046665                       # Average number of cycles messages are stalled in this MB (Unspecified)
system.caches.controllers4.responseToDirOrSibling.m_buf_msgs     0.000096                       # Average number of messages in buffer (Unspecified)
system.caches.controllers4.responseToDirOrSibling.m_stall_time   808.108052                       # Average number of cycles messages are stalled in this MB (Unspecified)
system.caches.controllers4.responseToL0.m_buf_msgs     0.005711                       # Average number of messages in buffer (Unspecified)
system.caches.controllers4.responseToL0.m_stall_time   999.996866                       # Average number of cycles messages are stalled in this MB (Unspecified)
system.caches.controllers4.xyzStatsObject.power_state.pwrStateResidencyTicks::UNDEFINED  40525567000                       # Cumulative time (in ticks) in various power states (Tick)
system.caches.controllers5.cacheMemory.m_demand_hits            0                       # Number of cache demand hits (Unspecified)
system.caches.controllers5.cacheMemory.m_demand_misses            0                       # Number of cache demand misses (Unspecified)
system.caches.controllers5.cacheMemory.m_demand_accesses            0                       # Number of cache demand accesses (Unspecified)
system.caches.controllers5.forwardFromDir.m_buf_msgs     0.002209                       # Average number of messages in buffer (Unspecified)
system.caches.controllers5.forwardFromDir.m_stall_time  5243.903756                       # Average number of cycles messages are stalled in this MB (Unspecified)
system.caches.controllers5.forwardFromDir.m_stall_count         2501                       # Number of times messages were stalled (Unspecified)
system.caches.controllers5.forwardToL0.m_buf_msgs     0.001353                       # Average number of messages in buffer (Unspecified)
system.caches.controllers5.forwardToL0.m_stall_time   807.853990                       # Average number of cycles messages are stalled in this MB (Unspecified)
system.caches.controllers5.power_state.pwrStateResidencyTicks::UNDEFINED  40525567000                       # Cumulative time (in ticks) in various power states (Tick)
system.caches.controllers5.requestFromL0.m_buf_msgs     0.044967                       # Average number of messages in buffer (Unspecified)
system.caches.controllers5.requestFromL0.m_stall_time 23476.990294                       # Average number of cycles messages are stalled in this MB (Unspecified)
system.caches.controllers5.requestFromL0.m_stall_count        63514                       # Number of times messages were stalled (Unspecified)
system.caches.controllers5.requestToDir.m_buf_msgs     0.003273                       # Average number of messages in buffer (Unspecified)
system.caches.controllers5.requestToDir.m_stall_time   808.111556                       # Average number of cycles messages are stalled in this MB (Unspecified)
system.caches.controllers5.responseFromDirOrSibling.m_buf_msgs     0.001753                       # Average number of messages in buffer (Unspecified)
system.caches.controllers5.responseFromDirOrSibling.m_stall_time 10351.477575                       # Average number of cycles messages are stalled in this MB (Unspecified)
system.caches.controllers5.responseFromL0.m_buf_msgs     0.000099                       # Average number of messages in buffer (Unspecified)
system.caches.controllers5.responseFromL0.m_stall_time  4036.430089                       # Average number of cycles messages are stalled in this MB (Unspecified)
system.caches.controllers5.responseToDirOrSibling.m_buf_msgs     0.000074                       # Average number of messages in buffer (Unspecified)
system.caches.controllers5.responseToDirOrSibling.m_stall_time   806.685888                       # Average number of cycles messages are stalled in this MB (Unspecified)
system.caches.controllers5.responseToL0.m_buf_msgs     0.003710                       # Average number of messages in buffer (Unspecified)
system.caches.controllers5.responseToL0.m_stall_time   808.111112                       # Average number of cycles messages are stalled in this MB (Unspecified)
system.caches.controllers5.xyzStatsObject.power_state.pwrStateResidencyTicks::UNDEFINED  40525567000                       # Cumulative time (in ticks) in various power states (Tick)
system.caches.controllers6.cacheMemory.m_demand_hits            0                       # Number of cache demand hits (Unspecified)
system.caches.controllers6.cacheMemory.m_demand_misses            0                       # Number of cache demand misses (Unspecified)
system.caches.controllers6.cacheMemory.m_demand_accesses            0                       # Number of cache demand accesses (Unspecified)
system.caches.controllers6.forwardFromDir.m_buf_msgs     0.002762                       # Average number of messages in buffer (Unspecified)
system.caches.controllers6.forwardFromDir.m_stall_time  5153.814406                       # Average number of cycles messages are stalled in this MB (Unspecified)
system.caches.controllers6.forwardFromDir.m_stall_count         1970                       # Number of times messages were stalled (Unspecified)
system.caches.controllers6.forwardToL0.m_buf_msgs     0.001967                       # Average number of messages in buffer (Unspecified)
system.caches.controllers6.forwardToL0.m_stall_time   806.572207                       # Average number of cycles messages are stalled in this MB (Unspecified)
system.caches.controllers6.power_state.pwrStateResidencyTicks::UNDEFINED  40525567000                       # Cumulative time (in ticks) in various power states (Tick)
system.caches.controllers6.requestFromL0.m_buf_msgs     0.055828                       # Average number of messages in buffer (Unspecified)
system.caches.controllers6.requestFromL0.m_stall_time 22838.951497                       # Average number of cycles messages are stalled in this MB (Unspecified)
system.caches.controllers6.requestFromL0.m_stall_count        92283                       # Number of times messages were stalled (Unspecified)
system.caches.controllers6.requestToDir.m_buf_msgs     0.004686                       # Average number of messages in buffer (Unspecified)
system.caches.controllers6.requestToDir.m_stall_time   806.791031                       # Average number of cycles messages are stalled in this MB (Unspecified)
system.caches.controllers6.responseFromDirOrSibling.m_buf_msgs     0.002473                       # Average number of messages in buffer (Unspecified)
system.caches.controllers6.responseFromDirOrSibling.m_stall_time 10121.410343                       # Average number of cycles messages are stalled in this MB (Unspecified)
system.caches.controllers6.responseFromL0.m_buf_msgs     0.000104                       # Average number of messages in buffer (Unspecified)
system.caches.controllers6.responseFromL0.m_stall_time  4032.839022                       # Average number of cycles messages are stalled in this MB (Unspecified)
system.caches.controllers6.responseToDirOrSibling.m_buf_msgs     0.000064                       # Average number of messages in buffer (Unspecified)
system.caches.controllers6.responseToDirOrSibling.m_stall_time   806.478266                       # Average number of cycles messages are stalled in this MB (Unspecified)
system.caches.controllers6.responseToL0.m_buf_msgs     0.005233                       # Average number of messages in buffer (Unspecified)
system.caches.controllers6.responseToL0.m_stall_time   806.788070                       # Average number of cycles messages are stalled in this MB (Unspecified)
system.caches.controllers6.xyzStatsObject.power_state.pwrStateResidencyTicks::UNDEFINED  40525567000                       # Cumulative time (in ticks) in various power states (Tick)
system.caches.controllers7.cacheMemory.m_demand_hits            0                       # Number of cache demand hits (Unspecified)
system.caches.controllers7.cacheMemory.m_demand_misses            0                       # Number of cache demand misses (Unspecified)
system.caches.controllers7.cacheMemory.m_demand_accesses            0                       # Number of cache demand accesses (Unspecified)
system.caches.controllers7.forwardFromDir.m_buf_msgs     0.002544                       # Average number of messages in buffer (Unspecified)
system.caches.controllers7.forwardFromDir.m_stall_time  4727.499359                       # Average number of cycles messages are stalled in this MB (Unspecified)
system.caches.controllers7.forwardFromDir.m_stall_count         2118                       # Number of times messages were stalled (Unspecified)
system.caches.controllers7.forwardToL0.m_buf_msgs     0.001704                       # Average number of messages in buffer (Unspecified)
system.caches.controllers7.forwardToL0.m_stall_time   805.072117                       # Average number of cycles messages are stalled in this MB (Unspecified)
system.caches.controllers7.power_state.pwrStateResidencyTicks::UNDEFINED  40525567000                       # Cumulative time (in ticks) in various power states (Tick)
system.caches.controllers7.requestFromL0.m_buf_msgs     0.051268                       # Average number of messages in buffer (Unspecified)
system.caches.controllers7.requestFromL0.m_stall_time 17615.465146                       # Average number of cycles messages are stalled in this MB (Unspecified)
system.caches.controllers7.requestFromL0.m_stall_count        82152                       # Number of times messages were stalled (Unspecified)
system.caches.controllers7.requestToDir.m_buf_msgs     0.004198                       # Average number of messages in buffer (Unspecified)
system.caches.controllers7.requestToDir.m_stall_time   805.372322                       # Average number of cycles messages are stalled in this MB (Unspecified)
system.caches.controllers7.responseFromDirOrSibling.m_buf_msgs     0.002241                       # Average number of messages in buffer (Unspecified)
system.caches.controllers7.responseFromDirOrSibling.m_stall_time 10301.890064                       # Average number of cycles messages are stalled in this MB (Unspecified)
system.caches.controllers7.responseFromL0.m_buf_msgs     0.000112                       # Average number of messages in buffer (Unspecified)
system.caches.controllers7.responseFromL0.m_stall_time  4023.420672                       # Average number of cycles messages are stalled in this MB (Unspecified)
system.caches.controllers7.responseToDirOrSibling.m_buf_msgs     0.000069                       # Average number of messages in buffer (Unspecified)
system.caches.controllers7.responseToDirOrSibling.m_stall_time   804.177274                       # Average number of cycles messages are stalled in this MB (Unspecified)
system.caches.controllers7.responseToL0.m_buf_msgs     0.004500                       # Average number of messages in buffer (Unspecified)
system.caches.controllers7.responseToL0.m_stall_time   805.363365                       # Average number of cycles messages are stalled in this MB (Unspecified)
system.caches.controllers7.xyzStatsObject.power_state.pwrStateResidencyTicks::UNDEFINED  40525567000                       # Cumulative time (in ticks) in various power states (Tick)
system.caches.controllers8.cacheMemory.m_demand_hits            0                       # Number of cache demand hits (Unspecified)
system.caches.controllers8.cacheMemory.m_demand_misses            0                       # Number of cache demand misses (Unspecified)
system.caches.controllers8.cacheMemory.m_demand_accesses            0                       # Number of cache demand accesses (Unspecified)
system.caches.controllers8.forwardToCache.m_buf_msgs     0.009248                       # Average number of messages in buffer (Unspecified)
system.caches.controllers8.forwardToCache.m_stall_time   999.899767                       # Average number of cycles messages are stalled in this MB (Unspecified)
system.caches.controllers8.power_state.pwrStateResidencyTicks::UNDEFINED  40525567000                       # Cumulative time (in ticks) in various power states (Tick)
system.caches.controllers8.requestFromCache.m_not_avail_count       118992                       # Number of times this buffer did not have N slots available (Unspecified)
system.caches.controllers8.requestFromCache.m_buf_msgs     0.017449                       # Average number of messages in buffer (Unspecified)
system.caches.controllers8.requestFromCache.m_stall_time 42872.712307                       # Average number of cycles messages are stalled in this MB (Unspecified)
system.caches.controllers8.requestFromCache.m_occupancy     0.017449                       # Average occupancy of buffer capacity (Unspecified)
system.caches.controllers8.requestToMemory.m_buf_msgs     0.002106                       # Average number of messages in buffer (Unspecified)
system.caches.controllers8.requestToMemory.m_stall_time   999.999704                       # Average number of cycles messages are stalled in this MB (Unspecified)
system.caches.controllers8.responseFromMemory.m_buf_msgs     0.002106                       # Average number of messages in buffer (Unspecified)
system.caches.controllers8.responseFromMemory.m_stall_time   999.997212                       # Average number of cycles messages are stalled in this MB (Unspecified)
system.caches.controllers8.responseToCache.m_buf_msgs     0.080835                       # Average number of messages in buffer (Unspecified)
system.caches.controllers8.responseToCache.m_stall_time  8999.972906                       # Average number of cycles messages are stalled in this MB (Unspecified)
system.caches.controllers8.xyzCacheMemory.m_demand_hits            0                       # Number of cache demand hits (Unspecified)
system.caches.controllers8.xyzCacheMemory.m_demand_misses            0                       # Number of cache demand misses (Unspecified)
system.caches.controllers8.xyzCacheMemory.m_demand_accesses            0                       # Number of cache demand accesses (Unspecified)
system.caches.controllers8.xyzStatsObject.power_state.pwrStateResidencyTicks::UNDEFINED  40525567000                       # Cumulative time (in ticks) in various power states (Tick)
system.caches.network.msg_count.Control       4121212                       (Unspecified)
system.caches.network.msg_byte.Control       32969696                       (Unspecified)
system.caches.network.msg_count.Data          2059344                       (Unspecified)
system.caches.network.msg_byte.Data         148272768                       (Unspecified)
system.caches.network.msg_count.Response_Data       656408                       (Unspecified)
system.caches.network.msg_byte.Response_Data     47261376                       (Unspecified)
system.caches.network.int_link_buffers102.m_buf_msgs     0.001967                       # Average number of messages in buffer (Unspecified)
system.caches.network.int_link_buffers102.m_stall_time  2420.778049                       # Average number of cycles messages are stalled in this MB (Unspecified)
system.caches.network.int_link_buffers103.m_buf_msgs     0.005233                       # Average number of messages in buffer (Unspecified)
system.caches.network.int_link_buffers103.m_stall_time  2420.364063                       # Average number of cycles messages are stalled in this MB (Unspecified)
system.caches.network.int_link_buffers107.m_buf_msgs     0.000035                       # Average number of messages in buffer (Unspecified)
system.caches.network.int_link_buffers107.m_stall_time  2415.703746                       # Average number of cycles messages are stalled in this MB (Unspecified)
system.caches.network.int_link_buffers11.m_buf_msgs     0.004337                       # Average number of messages in buffer (Unspecified)
system.caches.network.int_link_buffers11.m_stall_time  2924.800682                       # Average number of cycles messages are stalled in this MB (Unspecified)
system.caches.network.int_link_buffers114.m_buf_msgs     0.000011                       # Average number of messages in buffer (Unspecified)
system.caches.network.int_link_buffers114.m_stall_time  2419.434650                       # Average number of cycles messages are stalled in this MB (Unspecified)
system.caches.network.int_link_buffers12.m_buf_msgs     0.000099                       # Average number of messages in buffer (Unspecified)
system.caches.network.int_link_buffers12.m_stall_time  2421.866448                       # Average number of cycles messages are stalled in this MB (Unspecified)
system.caches.network.int_link_buffers121.m_buf_msgs     0.000017                       # Average number of messages in buffer (Unspecified)
system.caches.network.int_link_buffers121.m_stall_time  2412.282202                       # Average number of cycles messages are stalled in this MB (Unspecified)
system.caches.network.int_link_buffers126.m_buf_msgs     0.089096                       # Average number of messages in buffer (Unspecified)
[...]
system.caches.controllers2.xyzStatsObjectlatency::underflows            0      0.00%      0.00% # Mem access latency (Unspecified)
system.caches.controllers2.xyzStatsObjectlatency::0-49999       212089    100.00%    100.00% # Mem access latency (Unspecified)
system.caches.controllers2.xyzStatsObjectlatency::50000-99999            0      0.00%    100.00% # Mem access latency (Unspecified)
system.caches.controllers2.xyzStatsObjectlatency::100000            0      0.00%    100.00% # Mem access latency (Unspecified)
system.caches.controllers2.xyzStatsObjectlatency::overflows            0      0.00%    100.00% # Mem access latency (Unspecified)
system.caches.controllers2.xyzStatsObjectlatency::min_value           10                       # Mem access latency (Unspecified)
system.caches.controllers2.xyzStatsObjectlatency::max_value         1056                       # Mem access latency (Unspecified)
system.caches.controllers2.xyzStatsObjectlatency::total       212089                       # Mem access latency (Unspecified)
system.caches.controllers3.xyzStatsObject.total_put            0                       # Total number of put (PutM + PutS) (Unspecified)
system.caches.controllers3.xyzStatsObject.total_put_as_wt            0                       # Total number of put as write through (Unspecified)
system.caches.controllers3.xyzStatsObject.total_putm            0                       # Total number of PutM (Unspecified)
system.caches.controllers3.xyzStatsObject.total_putm_as_wt            0                       # Total number of PutM as write through (Unspecified)
system.caches.controllers3.xyzStatsObject.total_puts            0                       # Total number of PutS (Unspecified)
system.caches.controllers3.xyzStatsObject.total_puts_as_wt            0                       # Total number of PutS as write through (Unspecified)
system.caches.controllers3.xyzStatsObject.total_repl            0                       # Total Replacement (Unspecified)
system.caches.controllers3.xyzStatsObject.total_repl_llc            0                       # Total Replacement of LLC line (Unspecified)
system.caches.controllers3.xyzStatsObject.total_repl_owned            0                       # Total Replacement of owned line (Unspecified)
system.caches.controllers3.xyzStatsObject.total_repl_shared            0                       # Total Replacement of shared line (Unspecified)
system.caches.controllers3.xyzStatsObject.wt_putRatio          nan                       # WT / Put (Unspecified)
system.caches.controllers3.xyzStatsObject.wt_putmRatio          nan                       # PutM WT / PutM (Unspecified)
system.caches.controllers3.xyzStatsObject.wt_putsRatio          nan                       # PutS WT / PutS (Unspecified)
system.caches.controllers3.xyzStatsObjectlatency::samples       182347                       # Mem access latency (Unspecified)
system.caches.controllers3.xyzStatsObjectlatency::mean    48.413832                       # Mem access latency (Unspecified)
system.caches.controllers3.xyzStatsObjectlatency::stdev    94.972588                       # Mem access latency (Unspecified)
system.caches.controllers3.xyzStatsObjectlatency::underflows            0      0.00%      0.00% # Mem access latency (Unspecified)
system.caches.controllers3.xyzStatsObjectlatency::0-49999       182347    100.00%    100.00% # Mem access latency (Unspecified)
system.caches.controllers3.xyzStatsObjectlatency::50000-99999            0      0.00%    100.00% # Mem access latency (Unspecified)
system.caches.controllers3.xyzStatsObjectlatency::100000            0      0.00%    100.00% # Mem access latency (Unspecified)
system.caches.controllers3.xyzStatsObjectlatency::overflows            0      0.00%    100.00% # Mem access latency (Unspecified)
system.caches.controllers3.xyzStatsObjectlatency::min_value           10                       # Mem access latency (Unspecified)
system.caches.controllers3.xyzStatsObjectlatency::max_value         1044                       # Mem access latency (Unspecified)
system.caches.controllers3.xyzStatsObjectlatency::total       182347                       # Mem access latency (Unspecified)
system.caches.controllers4.xyzStatsObject.total_put            0                       # Total number of put (PutM + PutS) (Unspecified)
system.caches.controllers4.xyzStatsObject.total_put_as_wt            0                       # Total number of put as write through (Unspecified)
system.caches.controllers4.xyzStatsObject.total_putm            0                       # Total number of PutM (Unspecified)
system.caches.controllers4.xyzStatsObject.total_putm_as_wt            0                       # Total number of PutM as write through (Unspecified)
system.caches.controllers4.xyzStatsObject.total_puts            0                       # Total number of PutS (Unspecified)
system.caches.controllers4.xyzStatsObject.total_puts_as_wt            0                       # Total number of PutS as write through (Unspecified)
system.caches.controllers4.xyzStatsObject.total_repl            0                       # Total Replacement (Unspecified)
system.caches.controllers4.xyzStatsObject.total_repl_llc            0                       # Total Replacement of LLC line (Unspecified)
system.caches.controllers4.xyzStatsObject.total_repl_owned            0                       # Total Replacement of owned line (Unspecified)
system.caches.controllers4.xyzStatsObject.total_repl_shared            0                       # Total Replacement of shared line (Unspecified)
system.caches.controllers4.xyzStatsObject.wt_putRatio          nan                       # WT / Put (Unspecified)
system.caches.controllers4.xyzStatsObject.wt_putmRatio          nan                       # PutM WT / PutM (Unspecified)
system.caches.controllers4.xyzStatsObject.wt_putsRatio          nan                       # PutS WT / PutS (Unspecified)
system.caches.controllers4.xyzStatsObjectlatency::samples       113969                       # Mem access latency (Unspecified)
system.caches.controllers4.xyzStatsObjectlatency::mean    91.348253                       # Mem access latency (Unspecified)
system.caches.controllers4.xyzStatsObjectlatency::stdev   116.672904                       # Mem access latency (Unspecified)
system.caches.controllers4.xyzStatsObjectlatency::underflows            0      0.00%      0.00% # Mem access latency (Unspecified)
system.caches.controllers4.xyzStatsObjectlatency::0-49999       113969    100.00%    100.00% # Mem access latency (Unspecified)
system.caches.controllers4.xyzStatsObjectlatency::50000-99999            0      0.00%    100.00% # Mem access latency (Unspecified)
system.caches.controllers4.xyzStatsObjectlatency::100000            0      0.00%    100.00% # Mem access latency (Unspecified)
system.caches.controllers4.xyzStatsObjectlatency::overflows            0      0.00%    100.00% # Mem access latency (Unspecified)
system.caches.controllers4.xyzStatsObjectlatency::min_value           15                       # Mem access latency (Unspecified)
system.caches.controllers4.xyzStatsObjectlatency::max_value          730                       # Mem access latency (Unspecified)
system.caches.controllers4.xyzStatsObjectlatency::total       113969                       # Mem access latency (Unspecified)
system.caches.controllers5.xyzStatsObject.total_put            0                       # Total number of put (PutM + PutS) (Unspecified)
system.caches.controllers5.xyzStatsObject.total_put_as_wt            0                       # Total number of put as write through (Unspecified)
system.caches.controllers5.xyzStatsObject.total_putm            0                       # Total number of PutM (Unspecified)
system.caches.controllers5.xyzStatsObject.total_putm_as_wt            0                       # Total number of PutM as write through (Unspecified)
system.caches.controllers5.xyzStatsObject.total_puts            0                       # Total number of PutS (Unspecified)
system.caches.controllers5.xyzStatsObject.total_puts_as_wt            0                       # Total number of PutS as write through (Unspecified)
system.caches.controllers5.xyzStatsObject.total_repl            0                       # Total Replacement (Unspecified)
system.caches.controllers5.xyzStatsObject.total_repl_llc            0                       # Total Replacement of LLC line (Unspecified)
system.caches.controllers5.xyzStatsObject.total_repl_owned            0                       # Total Replacement of owned line (Unspecified)
system.caches.controllers5.xyzStatsObject.total_repl_shared            0                       # Total Replacement of shared line (Unspecified)
system.caches.controllers5.xyzStatsObject.wt_putRatio          nan                       # WT / Put (Unspecified)
system.caches.controllers5.xyzStatsObject.wt_putmRatio          nan                       # PutM WT / PutM (Unspecified)
system.caches.controllers5.xyzStatsObject.wt_putsRatio          nan                       # PutS WT / PutS (Unspecified)
system.caches.controllers5.xyzStatsObjectlatency::samples        70941                       # Mem access latency (Unspecified)
system.caches.controllers5.xyzStatsObjectlatency::mean    54.820062                       # Mem access latency (Unspecified)
system.caches.controllers5.xyzStatsObjectlatency::stdev    98.778151                       # Mem access latency (Unspecified)
system.caches.controllers5.xyzStatsObjectlatency::underflows            0      0.00%      0.00% # Mem access latency (Unspecified)
system.caches.controllers5.xyzStatsObjectlatency::0-49999        70941    100.00%    100.00% # Mem access latency (Unspecified)
system.caches.controllers5.xyzStatsObjectlatency::50000-99999            0      0.00%    100.00% # Mem access latency (Unspecified)
system.caches.controllers5.xyzStatsObjectlatency::100000            0      0.00%    100.00% # Mem access latency (Unspecified)
system.caches.controllers5.xyzStatsObjectlatency::overflows            0      0.00%    100.00% # Mem access latency (Unspecified)
system.caches.controllers5.xyzStatsObjectlatency::min_value           15                       # Mem access latency (Unspecified)
system.caches.controllers5.xyzStatsObjectlatency::max_value          728                       # Mem access latency (Unspecified)
system.caches.controllers5.xyzStatsObjectlatency::total        70941                       # Mem access latency (Unspecified)
system.caches.controllers6.xyzStatsObject.total_put            0                       # Total number of put (PutM + PutS) (Unspecified)
system.caches.controllers6.xyzStatsObject.total_put_as_wt            0                       # Total number of put as write through (Unspecified)
system.caches.controllers6.xyzStatsObject.total_putm            0                       # Total number of PutM (Unspecified)
system.caches.controllers6.xyzStatsObject.total_putm_as_wt            0                       # Total number of PutM as write through (Unspecified)
system.caches.controllers6.xyzStatsObject.total_puts            0                       # Total number of PutS (Unspecified)
system.caches.controllers6.xyzStatsObject.total_puts_as_wt            0                       # Total number of PutS as write through (Unspecified)
system.caches.controllers6.xyzStatsObject.total_repl            0                       # Total Replacement (Unspecified)
system.caches.controllers6.xyzStatsObject.total_repl_llc            0                       # Total Replacement of LLC line (Unspecified)
system.caches.controllers6.xyzStatsObject.total_repl_owned            0                       # Total Replacement of owned line (Unspecified)
system.caches.controllers6.xyzStatsObject.total_repl_shared            0                       # Total Replacement of shared line (Unspecified)
system.caches.controllers6.xyzStatsObject.wt_putRatio          nan                       # WT / Put (Unspecified)
system.caches.controllers6.xyzStatsObject.wt_putmRatio          nan                       # PutM WT / PutM (Unspecified)
system.caches.controllers6.xyzStatsObject.wt_putsRatio          nan                       # PutS WT / PutS (Unspecified)
system.caches.controllers6.xyzStatsObjectlatency::samples       100131                       # Mem access latency (Unspecified)
system.caches.controllers6.xyzStatsObjectlatency::mean    46.207988                       # Mem access latency (Unspecified)
system.caches.controllers6.xyzStatsObjectlatency::stdev    85.417981                       # Mem access latency (Unspecified)
system.caches.controllers6.xyzStatsObjectlatency::underflows            0      0.00%      0.00% # Mem access latency (Unspecified)
system.caches.controllers6.xyzStatsObjectlatency::0-49999       100131    100.00%    100.00% # Mem access latency (Unspecified)
system.caches.controllers6.xyzStatsObjectlatency::50000-99999            0      0.00%    100.00% # Mem access latency (Unspecified)
system.caches.controllers6.xyzStatsObjectlatency::100000            0      0.00%    100.00% # Mem access latency (Unspecified)
system.caches.controllers6.xyzStatsObjectlatency::overflows            0      0.00%    100.00% # Mem access latency (Unspecified)
system.caches.controllers6.xyzStatsObjectlatency::min_value           15                       # Mem access latency (Unspecified)
system.caches.controllers6.xyzStatsObjectlatency::max_value          730                       # Mem access latency (Unspecified)
system.caches.controllers6.xyzStatsObjectlatency::total       100131                       # Mem access latency (Unspecified)
system.caches.controllers7.xyzStatsObject.total_put            0                       # Total number of put (PutM + PutS) (Unspecified)
system.caches.controllers7.xyzStatsObject.total_put_as_wt            0                       # Total number of put as write through (Unspecified)
system.caches.controllers7.xyzStatsObject.total_putm            0                       # Total number of PutM (Unspecified)
system.caches.controllers7.xyzStatsObject.total_putm_as_wt            0                       # Total number of PutM as write through (Unspecified)
system.caches.controllers7.xyzStatsObject.total_puts            0                       # Total number of PutS (Unspecified)
system.caches.controllers7.xyzStatsObject.total_puts_as_wt            0                       # Total number of PutS as write through (Unspecified)
system.caches.controllers7.xyzStatsObject.total_repl            0                       # Total Replacement (Unspecified)
system.caches.controllers7.xyzStatsObject.total_repl_llc            0                       # Total Replacement of LLC line (Unspecified)
system.caches.controllers7.xyzStatsObject.total_repl_owned            0                       # Total Replacement of owned line (Unspecified)
system.caches.controllers7.xyzStatsObject.total_repl_shared            0                       # Total Replacement of shared line (Unspecified)
system.caches.controllers7.xyzStatsObject.wt_putRatio          nan                       # WT / Put (Unspecified)
system.caches.controllers7.xyzStatsObject.wt_putmRatio          nan                       # PutM WT / PutM (Unspecified)
system.caches.controllers7.xyzStatsObject.wt_putsRatio          nan                       # PutS WT / PutS (Unspecified)
system.caches.controllers7.xyzStatsObjectlatency::samples        90674                       # Mem access latency (Unspecified)
system.caches.controllers7.xyzStatsObjectlatency::mean    55.266879                       # Mem access latency (Unspecified)
system.caches.controllers7.xyzStatsObjectlatency::stdev    94.323935                       # Mem access latency (Unspecified)
system.caches.controllers7.xyzStatsObjectlatency::underflows            0      0.00%      0.00% # Mem access latency (Unspecified)
system.caches.controllers7.xyzStatsObjectlatency::0-49999        90674    100.00%    100.00% # Mem access latency (Unspecified)
system.caches.controllers7.xyzStatsObjectlatency::50000-99999            0      0.00%    100.00% # Mem access latency (Unspecified)
system.caches.controllers7.xyzStatsObjectlatency::100000            0      0.00%    100.00% # Mem access latency (Unspecified)
system.caches.controllers7.xyzStatsObjectlatency::overflows            0      0.00%    100.00% # Mem access latency (Unspecified)
system.caches.controllers7.xyzStatsObjectlatency::min_value           15                       # Mem access latency (Unspecified)
system.caches.controllers7.xyzStatsObjectlatency::max_value          732                       # Mem access latency (Unspecified)
system.caches.controllers7.xyzStatsObjectlatency::total        90674                       # Mem access latency (Unspecified)
system.caches.controllers8.xyzStatsObject.total_put       339270                       # Total number of put (PutM + PutS) (Unspecified)
system.caches.controllers8.xyzStatsObject.total_put_as_wt        49583                       # Total number of put as write through (Unspecified)
system.caches.controllers8.xyzStatsObject.total_putm        59496                       # Total number of PutM (Unspecified)
system.caches.controllers8.xyzStatsObject.total_putm_as_wt        13298                       # Total number of PutM as write through (Unspecified)
system.caches.controllers8.xyzStatsObject.total_puts       279774                       # Total number of PutS (Unspecified)
system.caches.controllers8.xyzStatsObject.total_puts_as_wt        36285                       # Total number of PutS as write through (Unspecified)
system.caches.controllers8.xyzStatsObject.total_repl            0                       # Total Replacement (Unspecified)
system.caches.controllers8.xyzStatsObject.total_repl_llc            0                       # Total Replacement of LLC line (Unspecified)
system.caches.controllers8.xyzStatsObject.total_repl_owned            0                       # Total Replacement of owned line (Unspecified)
system.caches.controllers8.xyzStatsObject.total_repl_shared            0                       # Total Replacement of shared line (Unspecified)
system.caches.controllers8.xyzStatsObject.wt_putRatio     0.146146                       # WT / Put (Unspecified)
system.caches.controllers8.xyzStatsObject.wt_putmRatio     0.223511                       # PutM WT / PutM (Unspecified)
system.caches.controllers8.xyzStatsObject.wt_putsRatio     0.129694                       # PutS WT / PutS (Unspecified)
system.caches.controllers8.xyzStatsObjectlatency::samples            0                       # Mem access latency (Unspecified)
system.caches.controllers8.xyzStatsObjectlatency::mean          nan                       # Mem access latency (Unspecified)
system.caches.controllers8.xyzStatsObjectlatency::stdev          nan                       # Mem access latency (Unspecified)
system.caches.controllers8.xyzStatsObjectlatency::underflows            0                       # Mem access latency (Unspecified)
system.caches.controllers8.xyzStatsObjectlatency::0-49999            0                       # Mem access latency (Unspecified)
system.caches.controllers8.xyzStatsObjectlatency::50000-99999            0                       # Mem access latency (Unspecified)
system.caches.controllers8.xyzStatsObjectlatency::100000            0                       # Mem access latency (Unspecified)
system.caches.controllers8.xyzStatsObjectlatency::overflows            0                       # Mem access latency (Unspecified)
system.caches.controllers8.xyzStatsObjectlatency::min_value            0                       # Mem access latency (Unspecified)
system.caches.controllers8.xyzStatsObjectlatency::max_value            0                       # Mem access latency (Unspecified)
system.caches.controllers8.xyzStatsObjectlatency::total            0                       # Mem access latency (Unspecified)

---------- End Simulation Statistics   ----------
