
---------- Begin Simulation Statistics ----------
simSeconds                                   0.058874                       # Number of seconds simulated (Second)
simTicks                                  58873983000                       # Number of ticks simulated (Tick)
finalTick                                 58873983000                       # Number of ticks from beginning of simulation (restored from checkpoints and never reset) (Tick)
simFreq                                  1000000000000                       # The number of ticks per simulated second ((Tick/Second))
hostSeconds                                     27.73                       # Real time elapsed on the host (Second)
hostTickRate                               2123287871                       # The number of ticks simulated per host second (ticks/s) ((Tick/Second))
hostMemory                                    4955344                       # Number of bytes of host memory used (Byte)
simInsts                                     20709294                       # Number of instructions simulated (Count)
simOps                                       33223789                       # Number of ops (including micro ops) simulated (Count)
hostInstRate                                   746856                       # Simulator instruction rate (inst/s) ((Count/Second))
hostOpRate                                    1198170                       # Simulator op (including micro ops) rate (op/s) ((Count/Second))
system.caches.m_outstandReqHistSeqr::bucket_size            1                       (Unspecified)
system.caches.m_outstandReqHistSeqr::max_bucket            9                       (Unspecified)
system.caches.m_outstandReqHistSeqr::samples     32286619                       (Unspecified)
system.caches.m_outstandReqHistSeqr::mean            1                       (Unspecified)
system.caches.m_outstandReqHistSeqr::gmean            1                       (Unspecified)
system.caches.m_outstandReqHistSeqr      |           0      0.00%      0.00% |    32286619    100.00%    100.00% |           0      0.00%    100.00% |           0      0.00%    100.00% |           0      0.00%    100.00% |           0      0.00%    100.00% |           0      0.00%    100.00% |           0      0.00%    100.00% |           0      0.00%    100.00% |           0      0.00%    100.00% (Unspecified)
system.caches.m_outstandReqHistSeqr::total     32286619                       (Unspecified)
system.caches.m_latencyHistSeqr::bucket_size          128                       (Unspecified)
system.caches.m_latencyHistSeqr::max_bucket         1279                       (Unspecified)
system.caches.m_latencyHistSeqr::samples     32286619                       (Unspecified)
system.caches.m_latencyHistSeqr::mean        4.042805                       (Unspecified)
system.caches.m_latencyHistSeqr::gmean       1.094339                       (Unspecified)
system.caches.m_latencyHistSeqr::stdev      33.836129                       (Unspecified)
system.caches.m_latencyHistSeqr          |    32020567     99.18%     99.18% |      103634      0.32%     99.50% |       79637      0.25%     99.74% |       44989      0.14%     99.88% |       23652      0.07%     99.96% |        9379      0.03%     99.99% |        3330      0.01%    100.00% |        1404      0.00%    100.00% |          27      0.00%    100.00% |           0      0.00%    100.00% (Unspecified)
system.caches.m_latencyHistSeqr::total       32286619                       (Unspecified)
system.caches.m_hitLatencyHistSeqr::bucket_size            1                       (Unspecified)
system.caches.m_hitLatencyHistSeqr::max_bucket            9                       (Unspecified)
system.caches.m_hitLatencyHistSeqr::samples     31511128                       (Unspecified)
system.caches.m_hitLatencyHistSeqr::mean            1                       (Unspecified)
system.caches.m_hitLatencyHistSeqr::gmean            1                       (Unspecified)
system.caches.m_hitLatencyHistSeqr       |           0      0.00%      0.00% |    31511128    100.00%    100.00% |           0      0.00%    100.00% |           0      0.00%    100.00% |           0      0.00%    100.00% |           0      0.00%    100.00% |           0      0.00%    100.00% |           0      0.00%    100.00% |           0      0.00%    100.00% |           0      0.00%    100.00% (Unspecified)
system.caches.m_hitLatencyHistSeqr::total     31511128                       (Unspecified)
system.caches.m_missLatencyHistSeqr::bucket_size          128                       (Unspecified)
system.caches.m_missLatencyHistSeqr::max_bucket         1279                       (Unspecified)
system.caches.m_missLatencyHistSeqr::samples       775491                       (Unspecified)
system.caches.m_missLatencyHistSeqr::mean   127.683456                       (Unspecified)
system.caches.m_missLatencyHistSeqr::gmean    42.661421                       (Unspecified)
system.caches.m_missLatencyHistSeqr::stdev   178.892831                       (Unspecified)
system.caches.m_missLatencyHistSeqr      |      509439     65.69%     65.69% |      103634     13.36%     79.06% |       79637     10.27%     89.33% |       44989      5.80%     95.13% |       23652      3.05%     98.18% |        9379      1.21%     99.39% |        3330      0.43%     99.82% |        1404      0.18%    100.00% |          27      0.00%    100.00% |           0      0.00%    100.00% (Unspecified)
system.caches.m_missLatencyHistSeqr::total       775491                       (Unspecified)
system.caches.L0Cache_Controller.Load    |      884426     28.07%     28.07% |      636354     20.19%     48.26% |      821515     26.07%     74.33% |      808873     25.67%    100.00% (Unspecified)
system.caches.L0Cache_Controller.Load::total      3151168                       (Unspecified)
system.caches.L0Cache_Controller.Ifetch  |     7720618     27.28%     27.28% |     5856473     20.70%     47.98% |     7299501     25.80%     73.77% |     7421101     26.23%    100.00% (Unspecified)
system.caches.L0Cache_Controller.Ifetch::total     28297693                       (Unspecified)
system.caches.L0Cache_Controller.Store   |      264699     31.60%     31.60% |      168510     20.11%     51.71% |      166622     19.89%     71.60% |      237927     28.40%    100.00% (Unspecified)
system.caches.L0Cache_Controller.Store::total       837758                       (Unspecified)
system.caches.L0Cache_Controller.Replacement |      191410     29.74%     29.74% |      125232     19.46%     49.20% |      177830     27.63%     76.83% |      149105     23.17%    100.00% (Unspecified)
system.caches.L0Cache_Controller.Replacement::total       643577                       (Unspecified)
system.caches.L0Cache_Controller.Inv     |       88667     30.36%     30.36% |       54799     18.76%     49.13% |       79544     27.24%     76.37% |       69021     23.63%    100.00% (Unspecified)
system.caches.L0Cache_Controller.Inv::total       292031                       (Unspecified)
system.caches.L0Cache_Controller.Data    |      213390     30.36%     30.36% |      134839     19.18%     49.54% |      190803     27.14%     76.68% |      163942     23.32%    100.00% (Unspecified)
system.caches.L0Cache_Controller.Data::total       702974                       (Unspecified)
system.caches.L0Cache_Controller.ExData  |       17723     24.44%     24.44% |       15325     21.13%     45.57% |       21110     29.11%     74.68% |       18359     25.32%    100.00% (Unspecified)
system.caches.L0Cache_Controller.ExData::total        72517                       (Unspecified)
system.caches.L0Cache_Controller.I.Load  |      162484     27.39%     27.39% |      119440     20.13%     47.52% |      171179     28.86%     76.38% |      140116     23.62%    100.00% (Unspecified)
system.caches.L0Cache_Controller.I.Load::total       593219                       (Unspecified)
system.caches.L0Cache_Controller.I.Ifetch |       44965     41.36%     41.36% |       16936     15.58%     56.94% |       23315     21.45%     78.39% |       23496     21.61%    100.00% (Unspecified)
system.caches.L0Cache_Controller.I.Ifetch::total       108712                       (Unspecified)
system.caches.L0Cache_Controller.I.Store |       14792     33.19%     33.19% |        8185     18.37%     51.56% |       10640     23.88%     75.44% |       10945     24.56%    100.00% (Unspecified)
system.caches.L0Cache_Controller.I.Store::total        44562                       (Unspecified)
system.caches.L0Cache_Controller.I.Inv   |       57895     30.58%     30.58% |       35527     18.76%     49.34% |       52297     27.62%     76.96% |       43628     23.04%    100.00% (Unspecified)
system.caches.L0Cache_Controller.I.Inv::total       189347                       (Unspecified)
system.caches.L0Cache_Controller.IS_D.Data |      189726     30.14%     30.14% |      121051     19.23%     49.38% |      173384     27.55%     76.92% |      145253     23.08%    100.00% (Unspecified)
system.caches.L0Cache_Controller.IS_D.Data::total       629414                       (Unspecified)
system.caches.L0Cache_Controller.IS_D.ExData |       17723     24.44%     24.44% |       15325     21.13%     45.57% |       21110     29.11%     74.68% |       18359     25.32%    100.00% (Unspecified)
system.caches.L0Cache_Controller.IS_D.ExData::total        72517                       (Unspecified)
system.caches.L0Cache_Controller.IM_D.Inv |           1     33.33%     33.33% |           1     33.33%     66.67% |           1     33.33%    100.00% |           0      0.00%    100.00% (Unspecified)
system.caches.L0Cache_Controller.IM_D.Inv::total            3                       (Unspecified)
system.caches.L0Cache_Controller.IM_D.Data |       23664     32.17%     32.17% |       13788     18.74%     50.91% |       17419     23.68%     74.59% |       18689     25.41%    100.00% (Unspecified)
system.caches.L0Cache_Controller.IM_D.Data::total        73560                       (Unspecified)
system.caches.L0Cache_Controller.S.Load  |      394825     28.40%     28.40% |      279789     20.13%     48.53% |      359401     25.85%     74.38% |      356102     25.62%    100.00% (Unspecified)
system.caches.L0Cache_Controller.S.Load::total      1390117                       (Unspecified)
system.caches.L0Cache_Controller.S.Ifetch |     7675653     27.23%     27.23% |     5839537     20.72%     47.94% |     7276186     25.81%     73.76% |     7397605     26.24%    100.00% (Unspecified)
system.caches.L0Cache_Controller.S.Ifetch::total     28188981                       (Unspecified)
system.caches.L0Cache_Controller.S.Store |        8872     30.60%     30.60% |        5603     19.32%     49.92% |        6779     23.38%     73.29% |        7744     26.71%    100.00% (Unspecified)
system.caches.L0Cache_Controller.S.Store::total        28998                       (Unspecified)
system.caches.L0Cache_Controller.S.Replacement |      157072     30.37%     30.37% |      100171     19.37%     49.74% |      143371     27.72%     77.46% |      116566     22.54%    100.00% (Unspecified)
system.caches.L0Cache_Controller.S.Replacement::total       517180                       (Unspecified)
system.caches.L0Cache_Controller.S.Inv   |       23742     28.58%     28.58% |       15234     18.34%     46.92% |       23191     27.92%     74.84% |       20899     25.16%    100.00% (Unspecified)
system.caches.L0Cache_Controller.S.Inv::total        83066                       (Unspecified)
system.caches.L0Cache_Controller.M.Load  |      327117     28.01%     28.01% |      237125     20.30%     48.32% |      290935     24.91%     73.23% |      312655     26.77%    100.00% (Unspecified)
system.caches.L0Cache_Controller.M.Load::total      1167832                       (Unspecified)
system.caches.L0Cache_Controller.M.Store |      241035     31.54%     31.54% |      154722     20.25%     51.79% |      149203     19.52%     71.31% |      219238     28.69%    100.00% (Unspecified)
system.caches.L0Cache_Controller.M.Store::total       764198                       (Unspecified)
system.caches.L0Cache_Controller.M.Replacement |       34338     27.17%     27.17% |       25061     19.83%     46.99% |       34459     27.26%     74.26% |       32539     25.74%    100.00% (Unspecified)
system.caches.L0Cache_Controller.M.Replacement::total       126397                       (Unspecified)
system.caches.L0Cache_Controller.M.Inv   |        7029     35.83%     35.83% |        4037     20.58%     56.42% |        4055     20.67%     77.09% |        4494     22.91%    100.00% (Unspecified)
system.caches.L0Cache_Controller.M.Inv::total        19615                       (Unspecified)
system.caches.L1Cache_Controller.Load    |      207449     29.55%     29.55% |      136376     19.43%     48.98% |      194494     27.71%     76.69% |      163612     23.31%    100.00% (Unspecified)
system.caches.L1Cache_Controller.Load::total       701931                       (Unspecified)
system.caches.L1Cache_Controller.Store   |       23664     32.17%     32.17% |       13788     18.74%     50.91% |       17419     23.68%     74.59% |       18689     25.41%    100.00% (Unspecified)
system.caches.L1Cache_Controller.Store::total        73560                       (Unspecified)
system.caches.L1Cache_Controller.PutM    |       34338     27.17%     27.17% |       25061     19.83%     46.99% |       34459     27.26%     74.26% |       32539     25.74%    100.00% (Unspecified)
system.caches.L1Cache_Controller.PutM::total       126397                       (Unspecified)
system.caches.L1Cache_Controller.Replacement |      209288     30.58%     30.58% |      126629     18.50%     49.09% |      184266     26.93%     76.02% |      164127     23.98%    100.00% (Unspecified)
system.caches.L1Cache_Controller.Replacement::total       684310                       (Unspecified)
system.caches.L1Cache_Controller.FwdGetM |        6602     31.78%     31.78% |        5464     26.30%     58.07% |        4053     19.51%     77.58% |        4658     22.42%    100.00% (Unspecified)
system.caches.L1Cache_Controller.FwdGetM::total        20777                       (Unspecified)
system.caches.L1Cache_Controller.Inv     |         162     26.78%     26.78% |         110     18.18%     44.96% |         192     31.74%     76.69% |         141     23.31%    100.00% (Unspecified)
system.caches.L1Cache_Controller.Inv::total          605                       (Unspecified)
system.caches.L1Cache_Controller.PutAck  |      100385     30.31%     30.31% |       61612     18.60%     48.91% |       89735     27.09%     76.01% |       79472     23.99%    100.00% (Unspecified)
system.caches.L1Cache_Controller.PutAck::total       331204                       (Unspecified)
system.caches.L1Cache_Controller.DataDirNoAcks |      110235     30.31%     30.31% |       67976     18.69%     48.99% |       97471     26.80%     75.79% |       88061     24.21%    100.00% (Unspecified)
system.caches.L1Cache_Controller.DataDirNoAcks::total       363743                       (Unspecified)
system.caches.L1Cache_Controller.DataOwner |        3527     30.77%     30.77% |        2875     25.09%     55.86% |        2491     21.73%     77.59% |        2568     22.41%    100.00% (Unspecified)
system.caches.L1Cache_Controller.DataOwner::total        11461                       (Unspecified)
system.caches.L1Cache_Controller.InvAck  |         208     34.38%     34.38% |         138     22.81%     57.19% |         102     16.86%     74.05% |         157     25.95%    100.00% (Unspecified)
system.caches.L1Cache_Controller.InvAck::total          605                       (Unspecified)
system.caches.L1Cache_Controller.WB_Data |        7029     35.83%     35.83% |        4037     20.58%     56.42% |        4055     20.67%     77.09% |        4494     22.91%    100.00% (Unspecified)
system.caches.L1Cache_Controller.WB_Data::total        19615                       (Unspecified)
system.caches.L1Cache_Controller.I.Load  |       93739     29.99%     29.99% |       58955     18.86%     48.85% |       85176     27.25%     76.10% |       74695     23.90%    100.00% (Unspecified)
system.caches.L1Cache_Controller.I.Load::total       312565                       (Unspecified)
system.caches.L1Cache_Controller.I.Store |       10579     33.92%     33.92% |        5837     18.72%     52.64% |        7131     22.87%     75.50% |        7640     24.50%    100.00% (Unspecified)
system.caches.L1Cache_Controller.I.Store::total        31187                       (Unspecified)
system.caches.L1Cache_Controller.IS_D.FwdGetM |           8     25.81%     25.81% |           9     29.03%     54.84% |           3      9.68%     64.52% |          11     35.48%    100.00% (Unspecified)
system.caches.L1Cache_Controller.IS_D.FwdGetM::total           31                       (Unspecified)
system.caches.L1Cache_Controller.IS_D.DataDirNoAcks |       91181     29.97%     29.97% |       56915     18.71%     48.67% |       83241     27.36%     76.03% |       72919     23.97%    100.00% (Unspecified)
system.caches.L1Cache_Controller.IS_D.DataDirNoAcks::total       304256                       (Unspecified)
system.caches.L1Cache_Controller.IS_D.DataOwner |        2558     30.79%     30.79% |        2040     24.55%     55.34% |        1935     23.29%     78.63% |        1776     21.37%    100.00% (Unspecified)
system.caches.L1Cache_Controller.IS_D.DataOwner::total         8309                       (Unspecified)
system.caches.L1Cache_Controller.IM_AD.FwdGetM |          11     28.95%     28.95% |           3      7.89%     36.84% |           7     18.42%     55.26% |          17     44.74%    100.00% (Unspecified)
system.caches.L1Cache_Controller.IM_AD.FwdGetM::total           38                       (Unspecified)
system.caches.L1Cache_Controller.IM_AD.DataDirNoAcks |        9612     34.28%     34.28% |        5003     17.84%     52.12% |        6576     23.45%     75.57% |        6849     24.43%    100.00% (Unspecified)
system.caches.L1Cache_Controller.IM_AD.DataDirNoAcks::total        28040                       (Unspecified)
system.caches.L1Cache_Controller.IM_AD.DataOwner |         969     30.74%     30.74% |         835     26.49%     57.23% |         556     17.64%     74.87% |         792     25.13%    100.00% (Unspecified)
system.caches.L1Cache_Controller.IM_AD.DataOwner::total         3152                       (Unspecified)
system.caches.L1Cache_Controller.IM_AD.InvAck |          37     28.46%     28.46% |          31     23.85%     52.31% |          20     15.38%     67.69% |          42     32.31%    100.00% (Unspecified)
system.caches.L1Cache_Controller.IM_AD.InvAck::total          130                       (Unspecified)
system.caches.L1Cache_Controller.S.Load  |       98545     30.31%     30.31% |       64136     19.72%     50.03% |       90143     27.72%     77.75% |       72334     22.25%    100.00% (Unspecified)
system.caches.L1Cache_Controller.S.Load::total       325158                       (Unspecified)
system.caches.L1Cache_Controller.S.Store |        9444     30.03%     30.03% |        6059     19.26%     49.29% |        7655     24.34%     73.63% |        8294     26.37%    100.00% (Unspecified)
system.caches.L1Cache_Controller.S.Store::total        31452                       (Unspecified)
system.caches.L1Cache_Controller.S.Replacement |       81474     29.98%     29.98% |       50648     18.63%     48.61% |       75296     27.70%     76.31% |       64386     23.69%    100.00% (Unspecified)
system.caches.L1Cache_Controller.S.Replacement::total       271804                       (Unspecified)
system.caches.L1Cache_Controller.S.Inv   |         160     26.67%     26.67% |         109     18.17%     44.83% |         191     31.83%     76.67% |         140     23.33%    100.00% (Unspecified)
system.caches.L1Cache_Controller.S.Inv::total          600                       (Unspecified)
system.caches.L1Cache_Controller.SM_AD.Inv |           2     40.00%     40.00% |           1     20.00%     60.00% |           1     20.00%     80.00% |           1     20.00%    100.00% (Unspecified)
system.caches.L1Cache_Controller.SM_AD.Inv::total            5                       (Unspecified)
system.caches.L1Cache_Controller.SM_AD.DataDirNoAcks |        9442     30.03%     30.03% |        6058     19.26%     49.29% |        7654     24.34%     73.63% |        8293     26.37%    100.00% (Unspecified)
system.caches.L1Cache_Controller.SM_AD.DataDirNoAcks::total        31447                       (Unspecified)
system.caches.L1Cache_Controller.SM_AD.InvAck |         171     36.00%     36.00% |         107     22.53%     58.53% |          82     17.26%     75.79% |         115     24.21%    100.00% (Unspecified)
system.caches.L1Cache_Controller.SM_AD.InvAck::total          475                       (Unspecified)
system.caches.L1Cache_Controller.M.Load  |       15165     23.62%     23.62% |       13285     20.69%     44.31% |       19175     29.86%     74.17% |       16583     25.83%    100.00% (Unspecified)
system.caches.L1Cache_Controller.M.Load::total        64208                       (Unspecified)
system.caches.L1Cache_Controller.M.Store |        3641     33.34%     33.34% |        1892     17.32%     50.66% |        2633     24.11%     74.77% |        2755     25.23%    100.00% (Unspecified)
system.caches.L1Cache_Controller.M.Store::total        10921                       (Unspecified)
system.caches.L1Cache_Controller.M.Replacement |       18911     31.84%     31.84% |       10964     18.46%     50.29% |       14439     24.31%     74.60% |       15086     25.40%    100.00% (Unspecified)
system.caches.L1Cache_Controller.M.Replacement::total        59400                       (Unspecified)
system.caches.L1Cache_Controller.M.FwdGetM |        3645     31.80%     31.80% |        2952     25.76%     57.56% |        2261     19.73%     77.29% |        2603     22.71%    100.00% (Unspecified)
system.caches.L1Cache_Controller.M.FwdGetM::total        11461                       (Unspecified)
system.caches.L1Cache_Controller.M_P.PutM |       34334     27.17%     27.17% |       25057     19.83%     46.99% |       34458     27.26%     74.26% |       32538     25.74%    100.00% (Unspecified)
system.caches.L1Cache_Controller.M_P.PutM::total       126387                       (Unspecified)
system.caches.L1Cache_Controller.M_P.Replacement |        4121     39.40%     39.40% |        1564     14.95%     54.35% |        2289     21.88%     76.23% |        2486     23.77%    100.00% (Unspecified)
system.caches.L1Cache_Controller.M_P.Replacement::total        10460                       (Unspecified)
system.caches.L1Cache_Controller.M_P.FwdGetM |        2911     31.77%     31.77% |        2477     27.03%     58.80% |        1767     19.28%     78.08% |        2009     21.92%    100.00% (Unspecified)
system.caches.L1Cache_Controller.M_P.FwdGetM::total         9164                       (Unspecified)
system.caches.L1Cache_Controller.M_P.WB_Data |           1    100.00%    100.00% |           0      0.00%    100.00% |           0      0.00%    100.00% |           0      0.00%    100.00% (Unspecified)
system.caches.L1Cache_Controller.M_P.WB_Data::total            1                       (Unspecified)
system.caches.L1Cache_Controller.MP_D.PutM |           4     40.00%     40.00% |           4     40.00%     80.00% |           1     10.00%     90.00% |           1     10.00%    100.00% (Unspecified)
system.caches.L1Cache_Controller.MP_D.PutM::total           10                       (Unspecified)
system.caches.L1Cache_Controller.MP_D.Replacement |        4123     39.37%     39.37% |        1566     14.95%     54.33% |        2293     21.90%     76.22% |        2490     23.78%    100.00% (Unspecified)
system.caches.L1Cache_Controller.MP_D.Replacement::total        10472                       (Unspecified)
system.caches.L1Cache_Controller.MP_D.FwdGetM |          27     32.53%     32.53% |          23     27.71%     60.24% |          15     18.07%     78.31% |          18     21.69%    100.00% (Unspecified)
system.caches.L1Cache_Controller.MP_D.FwdGetM::total           83                       (Unspecified)
system.caches.L1Cache_Controller.MP_D.WB_Data |        7028     35.83%     35.83% |        4037     20.58%     56.41% |        4055     20.67%     77.09% |        4494     22.91%    100.00% (Unspecified)
system.caches.L1Cache_Controller.MP_D.WB_Data::total        19614                       (Unspecified)
system.caches.L1Cache_Controller.MI_A.Replacement |       18950     31.81%     31.81% |       11011     18.49%     50.30% |       14484     24.32%     74.61% |       15121     25.39%    100.00% (Unspecified)
system.caches.L1Cache_Controller.MI_A.Replacement::total        59566                       (Unspecified)
system.caches.L1Cache_Controller.MI_A.PutAck |       18911     31.84%     31.84% |       10964     18.46%     50.29% |       14439     24.31%     74.60% |       15086     25.40%    100.00% (Unspecified)
system.caches.L1Cache_Controller.MI_A.PutAck::total        59400                       (Unspecified)
system.caches.L1Cache_Controller.SI_A.Replacement |       81709     29.97%     29.97% |       50876     18.66%     48.64% |       75465     27.68%     76.32% |       64558     23.68%    100.00% (Unspecified)
system.caches.L1Cache_Controller.SI_A.Replacement::total       272608                       (Unspecified)
system.caches.L1Cache_Controller.SI_A.PutAck |       81474     29.98%     29.98% |       50648     18.63%     48.61% |       75296     27.70%     76.31% |       64386     23.69%    100.00% (Unspecified)
system.caches.L1Cache_Controller.SI_A.PutAck::total       271804                       (Unspecified)
system.caches.Directory_Controller.GetS        312565      0.00%      0.00% (Unspecified)
system.caches.Directory_Controller.GetM         62639      0.00%      0.00% (Unspecified)
system.caches.Directory_Controller.PutSNotLast       122538      0.00%      0.00% (Unspecified)
system.caches.Directory_Controller.PutSLast        69524      0.00%      0.00% (Unspecified)
system.caches.Directory_Controller.PutSLastWT        79742      0.00%      0.00% (Unspecified)
system.caches.Directory_Controller.PutMOwner        26594      0.00%      0.00% (Unspecified)
system.caches.Directory_Controller.PutMOwnerWT        32806      0.00%      0.00% (Unspecified)
system.caches.Directory_Controller.Sync         52770      0.00%      0.00% (Unspecified)
system.caches.Directory_Controller.MemData       113450      0.00%      0.00% (Unspecified)
system.caches.Directory_Controller.LastMemAck       165318      0.00%      0.00% (Unspecified)
system.caches.Directory_Controller.I.GetS        96706      0.00%      0.00% (Unspecified)
system.caches.Directory_Controller.I.GetM        16744      0.00%      0.00% (Unspecified)
system.caches.Directory_Controller.S.GetS       123212      0.00%      0.00% (Unspecified)
system.caches.Directory_Controller.S.GetM        31563      0.00%      0.00% (Unspecified)
system.caches.Directory_Controller.S.PutSNotLast       122538      0.00%      0.00% (Unspecified)
system.caches.Directory_Controller.S.PutSLast        69524      0.00%      0.00% (Unspecified)
system.caches.Directory_Controller.S.PutSLastWT        79742      0.00%      0.00% (Unspecified)
system.caches.Directory_Controller.M.GetS         8309      0.00%      0.00% (Unspecified)
system.caches.Directory_Controller.M.GetM         3152      0.00%      0.00% (Unspecified)
system.caches.Directory_Controller.M.PutMOwner        26594      0.00%      0.00% (Unspecified)
system.caches.Directory_Controller.M.PutMOwnerWT        32806      0.00%      0.00% (Unspecified)
system.caches.Directory_Controller.LLCOnly.GetS        84338      0.00%      0.00% (Unspecified)
system.caches.Directory_Controller.LLCOnly.GetM        11180      0.00%      0.00% (Unspecified)
system.caches.Directory_Controller.LLCOnly.Sync        52770      0.00%      0.00% (Unspecified)
system.caches.Directory_Controller.LLCOnly_m.LastMemAck       132512      0.00%      0.00% (Unspecified)
system.caches.Directory_Controller.S_m.MemData        96706      0.00%      0.00% (Unspecified)
system.caches.Directory_Controller.M_m.MemData        16744      0.00%      0.00% (Unspecified)
system.caches.Directory_Controller.MI_m.LastMemAck        32806      0.00%      0.00% (Unspecified)
system.caches.RequestType.LD.latency_hist_seqr::bucket_size          128                       (Unspecified)
system.caches.RequestType.LD.latency_hist_seqr::max_bucket         1279                       (Unspecified)
system.caches.RequestType.LD.latency_hist_seqr::samples      3151168                       (Unspecified)
system.caches.RequestType.LD.latency_hist_seqr::mean    21.172020                       (Unspecified)
system.caches.RequestType.LD.latency_hist_seqr::gmean     1.943722                       (Unspecified)
system.caches.RequestType.LD.latency_hist_seqr::stdev    83.229374                       (Unspecified)
system.caches.RequestType.LD.latency_hist_seqr |     2978135     94.51%     94.51% |       66740      2.12%     96.63% |       51753      1.64%     98.27% |       31453      1.00%     99.27% |       16068      0.51%     99.78% |        5540      0.18%     99.95% |        1297      0.04%     99.99% |         179      0.01%    100.00% |           3      0.00%    100.00% |           0      0.00%    100.00% (Unspecified)
system.caches.RequestType.LD.latency_hist_seqr::total      3151168                       (Unspecified)
system.caches.RequestType.LD.hit_latency_hist_seqr::bucket_size            1                       (Unspecified)
system.caches.RequestType.LD.hit_latency_hist_seqr::max_bucket            9                       (Unspecified)
system.caches.RequestType.LD.hit_latency_hist_seqr::samples      2557949                       (Unspecified)
system.caches.RequestType.LD.hit_latency_hist_seqr::mean            1                       (Unspecified)
system.caches.RequestType.LD.hit_latency_hist_seqr::gmean            1                       (Unspecified)
system.caches.RequestType.LD.hit_latency_hist_seqr |           0      0.00%      0.00% |     2557949    100.00%    100.00% |           0      0.00%    100.00% |           0      0.00%    100.00% |           0      0.00%    100.00% |           0      0.00%    100.00% |           0      0.00%    100.00% |           0      0.00%    100.00% |           0      0.00%    100.00% |           0      0.00%    100.00% (Unspecified)
system.caches.RequestType.LD.hit_latency_hist_seqr::total      2557949                       (Unspecified)
system.caches.RequestType.LD.miss_latency_hist_seqr::bucket_size          128                       (Unspecified)
system.caches.RequestType.LD.miss_latency_hist_seqr::max_bucket         1279                       (Unspecified)
system.caches.RequestType.LD.miss_latency_hist_seqr::samples       593219                       (Unspecified)
system.caches.RequestType.LD.miss_latency_hist_seqr::mean   108.153387                       (Unspecified)
system.caches.RequestType.LD.miss_latency_hist_seqr::gmean    34.136501                       (Unspecified)
system.caches.RequestType.LD.miss_latency_hist_seqr::stdev   165.760253                       (Unspecified)
system.caches.RequestType.LD.miss_latency_hist_seqr |      420186     70.83%     70.83% |       66740     11.25%     82.08% |       51753      8.72%     90.81% |       31453      5.30%     96.11% |       16068      2.71%     98.82% |        5540      0.93%     99.75% |        1297      0.22%     99.97% |         179      0.03%    100.00% |           3      0.00%    100.00% |           0      0.00%    100.00% (Unspecified)
system.caches.RequestType.LD.miss_latency_hist_seqr::total       593219                       (Unspecified)
system.caches.RequestType.ST.latency_hist_seqr::bucket_size          128                       (Unspecified)
system.caches.RequestType.ST.latency_hist_seqr::max_bucket         1279                       (Unspecified)
system.caches.RequestType.ST.latency_hist_seqr::samples       776494                       (Unspecified)
system.caches.RequestType.ST.latency_hist_seqr::mean    17.077626                       (Unspecified)
system.caches.RequestType.ST.latency_hist_seqr::gmean     1.466108                       (Unspecified)
system.caches.RequestType.ST.latency_hist_seqr::stdev    83.614545                       (Unspecified)
system.caches.RequestType.ST.latency_hist_seqr |      745291     95.98%     95.98% |       12728      1.64%     97.62% |        8455      1.09%     98.71% |        3485      0.45%     99.16% |        2368      0.30%     99.46% |        1725      0.22%     99.69% |        1383      0.18%     99.86% |        1037      0.13%    100.00% |          22      0.00%    100.00% |           0      0.00%    100.00% (Unspecified)
system.caches.RequestType.ST.latency_hist_seqr::total       776494                       (Unspecified)
system.caches.RequestType.ST.hit_latency_hist_seqr::bucket_size            1                       (Unspecified)
system.caches.RequestType.ST.hit_latency_hist_seqr::max_bucket            9                       (Unspecified)
system.caches.RequestType.ST.hit_latency_hist_seqr::samples       709644                       (Unspecified)
system.caches.RequestType.ST.hit_latency_hist_seqr::mean            1                       (Unspecified)
system.caches.RequestType.ST.hit_latency_hist_seqr::gmean            1                       (Unspecified)
system.caches.RequestType.ST.hit_latency_hist_seqr |           0      0.00%      0.00% |      709644    100.00%    100.00% |           0      0.00%    100.00% |           0      0.00%    100.00% |           0      0.00%    100.00% |           0      0.00%    100.00% |           0      0.00%    100.00% |           0      0.00%    100.00% |           0      0.00%    100.00% |           0      0.00%    100.00% (Unspecified)
system.caches.RequestType.ST.hit_latency_hist_seqr::total       709644                       (Unspecified)
system.caches.RequestType.ST.miss_latency_hist_seqr::bucket_size          128                       (Unspecified)
system.caches.RequestType.ST.miss_latency_hist_seqr::max_bucket         1279                       (Unspecified)
system.caches.RequestType.ST.miss_latency_hist_seqr::samples        66850                       (Unspecified)
system.caches.RequestType.ST.miss_latency_hist_seqr::mean   187.749140                       (Unspecified)
system.caches.RequestType.ST.miss_latency_hist_seqr::gmean    85.132400                       (Unspecified)
system.caches.RequestType.ST.miss_latency_hist_seqr::stdev   222.117453                       (Unspecified)
system.caches.RequestType.ST.miss_latency_hist_seqr |       35647     53.32%     53.32% |       12728     19.04%     72.36% |        8455     12.65%     85.01% |        3485      5.21%     90.22% |        2368      3.54%     93.77% |        1725      2.58%     96.35% |        1383      2.07%     98.42% |        1037      1.55%     99.97% |          22      0.03%    100.00% |           0      0.00%    100.00% (Unspecified)
system.caches.RequestType.ST.miss_latency_hist_seqr::total        66850                       (Unspecified)
system.caches.RequestType.IFETCH.latency_hist_seqr::bucket_size          128                       (Unspecified)
system.caches.RequestType.IFETCH.latency_hist_seqr::max_bucket         1279                       (Unspecified)
system.caches.RequestType.IFETCH.latency_hist_seqr::samples     28297693                       (Unspecified)
system.caches.RequestType.IFETCH.latency_hist_seqr::mean     1.759357                       (Unspecified)
system.caches.RequestType.IFETCH.latency_hist_seqr::gmean     1.017545                       (Unspecified)
system.caches.RequestType.IFETCH.latency_hist_seqr::stdev    17.143963                       (Unspecified)
system.caches.RequestType.IFETCH.latency_hist_seqr |    28237789     99.79%     99.79% |       23129      0.08%     99.87% |       18880      0.07%     99.94% |        9847      0.03%     99.97% |        5130      0.02%     99.99% |        2087      0.01%    100.00% |         644      0.00%    100.00% |         185      0.00%    100.00% |           2      0.00%    100.00% |           0      0.00%    100.00% (Unspecified)
system.caches.RequestType.IFETCH.latency_hist_seqr::total     28297693                       (Unspecified)
system.caches.RequestType.IFETCH.hit_latency_hist_seqr::bucket_size            1                       (Unspecified)
system.caches.RequestType.IFETCH.hit_latency_hist_seqr::max_bucket            9                       (Unspecified)
system.caches.RequestType.IFETCH.hit_latency_hist_seqr::samples     28188981                       (Unspecified)
system.caches.RequestType.IFETCH.hit_latency_hist_seqr::mean            1                       (Unspecified)
system.caches.RequestType.IFETCH.hit_latency_hist_seqr::gmean            1                       (Unspecified)
system.caches.RequestType.IFETCH.hit_latency_hist_seqr |           0      0.00%      0.00% |    28188981    100.00%    100.00% |           0      0.00%    100.00% |           0      0.00%    100.00% |           0      0.00%    100.00% |           0      0.00%    100.00% |           0      0.00%    100.00% |           0      0.00%    100.00% |           0      0.00%    100.00% |           0      0.00%    100.00% (Unspecified)
system.caches.RequestType.IFETCH.hit_latency_hist_seqr::total     28188981                       (Unspecified)
system.caches.RequestType.IFETCH.miss_latency_hist_seqr::bucket_size          128                       (Unspecified)
system.caches.RequestType.IFETCH.miss_latency_hist_seqr::max_bucket         1279                       (Unspecified)
system.caches.RequestType.IFETCH.miss_latency_hist_seqr::samples       108712                       (Unspecified)
system.caches.RequestType.IFETCH.miss_latency_hist_seqr::mean   198.660313                       (Unspecified)
system.caches.RequestType.IFETCH.miss_latency_hist_seqr::gmean    92.507875                       (Unspecified)
system.caches.RequestType.IFETCH.miss_latency_hist_seqr::stdev   193.873470                       (Unspecified)
system.caches.RequestType.IFETCH.miss_latency_hist_seqr |       48808     44.90%     44.90% |       23129     21.28%     66.17% |       18880     17.37%     83.54% |        9847      9.06%     92.60% |        5130      4.72%     97.32% |        2087      1.92%     99.24% |         644      0.59%     99.83% |         185      0.17%    100.00% |           2      0.00%    100.00% |           0      0.00%    100.00% (Unspecified)
system.caches.RequestType.IFETCH.miss_latency_hist_seqr::total       108712                       (Unspecified)
system.caches.RequestType.RMW_Read.latency_hist_seqr::bucket_size          128                       (Unspecified)
system.caches.RequestType.RMW_Read.latency_hist_seqr::max_bucket         1279                       (Unspecified)
system.caches.RequestType.RMW_Read.latency_hist_seqr::samples        21348                       (Unspecified)
system.caches.RequestType.RMW_Read.latency_hist_seqr::mean    11.637952                       (Unspecified)
system.caches.RequestType.RMW_Read.latency_hist_seqr::gmean     1.442334                       (Unspecified)
system.caches.RequestType.RMW_Read.latency_hist_seqr::stdev    56.459625                       (Unspecified)
system.caches.RequestType.RMW_Read.latency_hist_seqr |       20740     97.15%     97.15% |         276      1.29%     98.44% |         195      0.91%     99.36% |          82      0.38%     99.74% |          39      0.18%     99.93% |          10      0.05%     99.97% |           4      0.02%     99.99% |           2      0.01%    100.00% |           0      0.00%    100.00% |           0      0.00%    100.00% (Unspecified)
system.caches.RequestType.RMW_Read.latency_hist_seqr::total        21348                       (Unspecified)
system.caches.RequestType.RMW_Read.hit_latency_hist_seqr::bucket_size            1                       (Unspecified)
system.caches.RequestType.RMW_Read.hit_latency_hist_seqr::max_bucket            9                       (Unspecified)
system.caches.RequestType.RMW_Read.hit_latency_hist_seqr::samples        19424                       (Unspecified)
system.caches.RequestType.RMW_Read.hit_latency_hist_seqr::mean            1                       (Unspecified)
system.caches.RequestType.RMW_Read.hit_latency_hist_seqr::gmean            1                       (Unspecified)
system.caches.RequestType.RMW_Read.hit_latency_hist_seqr |           0      0.00%      0.00% |       19424    100.00%    100.00% |           0      0.00%    100.00% |           0      0.00%    100.00% |           0      0.00%    100.00% |           0      0.00%    100.00% |           0      0.00%    100.00% |           0      0.00%    100.00% |           0      0.00%    100.00% |           0      0.00%    100.00% (Unspecified)
system.caches.RequestType.RMW_Read.hit_latency_hist_seqr::total        19424                       (Unspecified)
system.caches.RequestType.RMW_Read.miss_latency_hist_seqr::bucket_size          128                       (Unspecified)
system.caches.RequestType.RMW_Read.miss_latency_hist_seqr::max_bucket         1279                       (Unspecified)
system.caches.RequestType.RMW_Read.miss_latency_hist_seqr::samples         1924                       (Unspecified)
system.caches.RequestType.RMW_Read.miss_latency_hist_seqr::mean   119.034823                       (Unspecified)
system.caches.RequestType.RMW_Read.miss_latency_hist_seqr::gmean    58.201893                       (Unspecified)
system.caches.RequestType.RMW_Read.miss_latency_hist_seqr::stdev   150.675167                       (Unspecified)
system.caches.RequestType.RMW_Read.miss_latency_hist_seqr |        1316     68.40%     68.40% |         276     14.35%     82.74% |         195     10.14%     92.88% |          82      4.26%     97.14% |          39      2.03%     99.17% |          10      0.52%     99.69% |           4      0.21%     99.90% |           2      0.10%    100.00% |           0      0.00%    100.00% |           0      0.00%    100.00% (Unspecified)
system.caches.RequestType.RMW_Read.miss_latency_hist_seqr::total         1924                       (Unspecified)
system.caches.RequestType.Locked_RMW_Read.latency_hist_seqr::bucket_size          128                       (Unspecified)
system.caches.RequestType.Locked_RMW_Read.latency_hist_seqr::max_bucket         1279                       (Unspecified)
system.caches.RequestType.Locked_RMW_Read.latency_hist_seqr::samples        19958                       (Unspecified)
system.caches.RequestType.Locked_RMW_Read.latency_hist_seqr::mean    24.906604                       (Unspecified)
system.caches.RequestType.Locked_RMW_Read.latency_hist_seqr::gmean     2.627512                       (Unspecified)
system.caches.RequestType.Locked_RMW_Read.latency_hist_seqr::stdev    73.485622                       (Unspecified)
system.caches.RequestType.Locked_RMW_Read.latency_hist_seqr |       18654     93.47%     93.47% |         761      3.81%     97.28% |         354      1.77%     99.05% |         122      0.61%     99.66% |          47      0.24%     99.90% |          17      0.09%     99.98% |           2      0.01%     99.99% |           1      0.01%    100.00% |           0      0.00%    100.00% |           0      0.00%    100.00% (Unspecified)
system.caches.RequestType.Locked_RMW_Read.latency_hist_seqr::total        19958                       (Unspecified)
system.caches.RequestType.Locked_RMW_Read.hit_latency_hist_seqr::bucket_size            1                       (Unspecified)
system.caches.RequestType.Locked_RMW_Read.hit_latency_hist_seqr::max_bucket            9                       (Unspecified)
system.caches.RequestType.Locked_RMW_Read.hit_latency_hist_seqr::samples        15172                       (Unspecified)
system.caches.RequestType.Locked_RMW_Read.hit_latency_hist_seqr::mean            1                       (Unspecified)
system.caches.RequestType.Locked_RMW_Read.hit_latency_hist_seqr::gmean            1                       (Unspecified)
system.caches.RequestType.Locked_RMW_Read.hit_latency_hist_seqr |           0      0.00%      0.00% |       15172    100.00%    100.00% |           0      0.00%    100.00% |           0      0.00%    100.00% |           0      0.00%    100.00% |           0      0.00%    100.00% |           0      0.00%    100.00% |           0      0.00%    100.00% |           0      0.00%    100.00% |           0      0.00%    100.00% (Unspecified)
system.caches.RequestType.Locked_RMW_Read.hit_latency_hist_seqr::total        15172                       (Unspecified)
system.caches.RequestType.Locked_RMW_Read.miss_latency_hist_seqr::bucket_size          128                       (Unspecified)
system.caches.RequestType.Locked_RMW_Read.miss_latency_hist_seqr::max_bucket         1279                       (Unspecified)
system.caches.RequestType.Locked_RMW_Read.miss_latency_hist_seqr::samples         4786                       (Unspecified)
system.caches.RequestType.Locked_RMW_Read.miss_latency_hist_seqr::mean   100.692436                       (Unspecified)
system.caches.RequestType.Locked_RMW_Read.miss_latency_hist_seqr::gmean    56.173910                       (Unspecified)
system.caches.RequestType.Locked_RMW_Read.miss_latency_hist_seqr::stdev   122.334472                       (Unspecified)
system.caches.RequestType.Locked_RMW_Read.miss_latency_hist_seqr |        3482     72.75%     72.75% |         761     15.90%     88.65% |         354      7.40%     96.05% |         122      2.55%     98.60% |          47      0.98%     99.58% |          17      0.36%     99.94% |           2      0.04%     99.98% |           1      0.02%    100.00% |           0      0.00%    100.00% |           0      0.00%    100.00% (Unspecified)
system.caches.RequestType.Locked_RMW_Read.miss_latency_hist_seqr::total         4786                       (Unspecified)
system.caches.RequestType.Locked_RMW_Write.latency_hist_seqr::bucket_size            1                       (Unspecified)
system.caches.RequestType.Locked_RMW_Write.latency_hist_seqr::max_bucket            9                       (Unspecified)
system.caches.RequestType.Locked_RMW_Write.latency_hist_seqr::samples        19958                       (Unspecified)
system.caches.RequestType.Locked_RMW_Write.latency_hist_seqr::mean            1                       (Unspecified)
system.caches.RequestType.Locked_RMW_Write.latency_hist_seqr::gmean            1                       (Unspecified)
system.caches.RequestType.Locked_RMW_Write.latency_hist_seqr |           0      0.00%      0.00% |       19958    100.00%    100.00% |           0      0.00%    100.00% |           0      0.00%    100.00% |           0      0.00%    100.00% |           0      0.00%    100.00% |           0      0.00%    100.00% |           0      0.00%    100.00% |           0      0.00%    100.00% |           0      0.00%    100.00% (Unspecified)
system.caches.RequestType.Locked_RMW_Write.latency_hist_seqr::total        19958                       (Unspecified)
system.caches.RequestType.Locked_RMW_Write.hit_latency_hist_seqr::bucket_size            1                       (Unspecified)
system.caches.RequestType.Locked_RMW_Write.hit_latency_hist_seqr::max_bucket            9                       (Unspecified)
system.caches.RequestType.Locked_RMW_Write.hit_latency_hist_seqr::samples        19958                       (Unspecified)
system.caches.RequestType.Locked_RMW_Write.hit_latency_hist_seqr::mean            1                       (Unspecified)
system.caches.RequestType.Locked_RMW_Write.hit_latency_hist_seqr::gmean            1                       (Unspecified)
system.caches.RequestType.Locked_RMW_Write.hit_latency_hist_seqr |           0      0.00%      0.00% |       19958    100.00%    100.00% |           0      0.00%    100.00% |           0      0.00%    100.00% |           0      0.00%    100.00% |           0      0.00%    100.00% |           0      0.00%    100.00% |           0      0.00%    100.00% |           0      0.00%    100.00% |           0      0.00%    100.00% (Unspecified)
system.caches.RequestType.Locked_RMW_Write.hit_latency_hist_seqr::total        19958                       (Unspecified)
system.caches.controllers0.DCache.m_demand_hits            0                       # Number of cache demand hits (Unspecified)
system.caches.controllers0.DCache.m_demand_misses            0                       # Number of cache demand misses (Unspecified)
system.caches.controllers0.DCache.m_demand_accesses            0                       # Number of cache demand accesses (Unspecified)
system.caches.controllers0.ICache.m_demand_hits            0                       # Number of cache demand hits (Unspecified)
system.caches.controllers0.ICache.m_demand_misses            0                       # Number of cache demand misses (Unspecified)
system.caches.controllers0.ICache.m_demand_accesses            0                       # Number of cache demand accesses (Unspecified)
system.caches.controllers0.forwardFromL1.m_buf_msgs     7.910863                       # Average number of messages in buffer (Unspecified)
system.caches.controllers0.forwardFromL1.m_stall_time  5000.035805                       # Average number of cycles messages are stalled in this MB (Unspecified)
system.caches.controllers0.forwardFromL1.m_stall_count            1                       # Number of times messages were stalled (Unspecified)
system.caches.controllers0.mandatoryQueue.m_buf_msgs     0.150656                       # Average number of messages in buffer (Unspecified)
system.caches.controllers0.mandatoryQueue.m_stall_time   999.999983                       # Average number of cycles messages are stalled in this MB (Unspecified)
system.caches.controllers0.power_state.pwrStateResidencyTicks::UNDEFINED  58873983000                       # Cumulative time (in ticks) in various power states (Tick)
system.caches.controllers0.requestToL1.m_buf_msgs     0.004509                       # Average number of messages in buffer (Unspecified)
system.caches.controllers0.requestToL1.m_stall_time   999.999966                       # Average number of cycles messages are stalled in this MB (Unspecified)
system.caches.controllers0.responseFromL1.m_buf_msgs     0.003926                       # Average number of messages in buffer (Unspecified)
system.caches.controllers0.responseFromL1.m_stall_time  4999.988875                       # Average number of cycles messages are stalled in this MB (Unspecified)
system.caches.controllers0.responseToL1.m_buf_msgs     0.000119                       # Average number of messages in buffer (Unspecified)
system.caches.controllers0.responseToL1.m_stall_time   999.731155                       # Average number of cycles messages are stalled in this MB (Unspecified)
system.caches.controllers0.xyzStatsObject.power_state.pwrStateResidencyTicks::UNDEFINED  58873983000                       # Cumulative time (in ticks) in various power states (Tick)
system.caches.controllers1.DCache.m_demand_hits            0                       # Number of cache demand hits (Unspecified)
system.caches.controllers1.DCache.m_demand_misses            0                       # Number of cache demand misses (Unspecified)
system.caches.controllers1.DCache.m_demand_accesses            0                       # Number of cache demand accesses (Unspecified)
system.caches.controllers1.ICache.m_demand_hits            0                       # Number of cache demand hits (Unspecified)
system.caches.controllers1.ICache.m_demand_misses            0                       # Number of cache demand misses (Unspecified)
system.caches.controllers1.ICache.m_demand_accesses            0                       # Number of cache demand accesses (Unspecified)
system.caches.controllers1.forwardFromL1.m_buf_msgs     2.559388                       # Average number of messages in buffer (Unspecified)
system.caches.controllers1.forwardFromL1.m_stall_time  4339.291874                       # Average number of cycles messages are stalled in this MB (Unspecified)
system.caches.controllers1.forwardFromL1.m_stall_count            1                       # Number of times messages were stalled (Unspecified)
system.caches.controllers1.mandatoryQueue.m_buf_msgs     0.113146                       # Average number of messages in buffer (Unspecified)
system.caches.controllers1.mandatoryQueue.m_stall_time   867.914797                       # Average number of cycles messages are stalled in this MB (Unspecified)
system.caches.controllers1.power_state.pwrStateResidencyTicks::UNDEFINED  58873983000                       # Cumulative time (in ticks) in various power states (Tick)
system.caches.controllers1.requestToL1.m_buf_msgs     0.002976                       # Average number of messages in buffer (Unspecified)
system.caches.controllers1.requestToL1.m_stall_time   867.914780                       # Average number of cycles messages are stalled in this MB (Unspecified)
system.caches.controllers1.responseFromL1.m_buf_msgs     0.002551                       # Average number of messages in buffer (Unspecified)
system.caches.controllers1.responseFromL1.m_stall_time  4339.571607                       # Average number of cycles messages are stalled in this MB (Unspecified)
system.caches.controllers1.responseToL1.m_buf_msgs     0.000069                       # Average number of messages in buffer (Unspecified)
system.caches.controllers1.responseToL1.m_stall_time   867.314600                       # Average number of cycles messages are stalled in this MB (Unspecified)
system.caches.controllers1.xyzStatsObject.power_state.pwrStateResidencyTicks::UNDEFINED  58873983000                       # Cumulative time (in ticks) in various power states (Tick)
system.caches.controllers2.DCache.m_demand_hits            0                       # Number of cache demand hits (Unspecified)
system.caches.controllers2.DCache.m_demand_misses            0                       # Number of cache demand misses (Unspecified)
system.caches.controllers2.DCache.m_demand_accesses            0                       # Number of cache demand accesses (Unspecified)
system.caches.controllers2.ICache.m_demand_hits            0                       # Number of cache demand hits (Unspecified)
system.caches.controllers2.ICache.m_demand_misses            0                       # Number of cache demand misses (Unspecified)
system.caches.controllers2.ICache.m_demand_accesses            0                       # Number of cache demand accesses (Unspecified)
system.caches.controllers2.forwardFromL1.m_buf_msgs     3.663097                       # Average number of messages in buffer (Unspecified)
system.caches.controllers2.forwardFromL1.m_stall_time  4333.962915                       # Average number of cycles messages are stalled in this MB (Unspecified)
system.caches.controllers2.forwardFromL1.m_stall_count            1                       # Number of times messages were stalled (Unspecified)
system.caches.controllers2.mandatoryQueue.m_buf_msgs     0.140769                       # Average number of messages in buffer (Unspecified)
system.caches.controllers2.mandatoryQueue.m_stall_time   866.923646                       # Average number of cycles messages are stalled in this MB (Unspecified)
system.caches.controllers2.power_state.pwrStateResidencyTicks::UNDEFINED  58873983000                       # Cumulative time (in ticks) in various power states (Tick)
system.caches.controllers2.requestToL1.m_buf_msgs     0.004185                       # Average number of messages in buffer (Unspecified)
system.caches.controllers2.requestToL1.m_stall_time   866.923629                       # Average number of cycles messages are stalled in this MB (Unspecified)
system.caches.controllers2.responseFromL1.m_buf_msgs     0.003599                       # Average number of messages in buffer (Unspecified)
system.caches.controllers2.responseFromL1.m_stall_time  4334.604217                       # Average number of cycles messages are stalled in this MB (Unspecified)
system.caches.controllers2.responseToL1.m_buf_msgs     0.000069                       # Average number of messages in buffer (Unspecified)
system.caches.controllers2.responseToL1.m_stall_time   866.655786                       # Average number of cycles messages are stalled in this MB (Unspecified)
system.caches.controllers2.xyzStatsObject.power_state.pwrStateResidencyTicks::UNDEFINED  58873983000                       # Cumulative time (in ticks) in various power states (Tick)
system.caches.controllers3.DCache.m_demand_hits            0                       # Number of cache demand hits (Unspecified)
system.caches.controllers3.DCache.m_demand_misses            0                       # Number of cache demand misses (Unspecified)
system.caches.controllers3.DCache.m_demand_accesses            0                       # Number of cache demand accesses (Unspecified)
system.caches.controllers3.ICache.m_demand_hits            0                       # Number of cache demand hits (Unspecified)
system.caches.controllers3.ICache.m_demand_misses            0                       # Number of cache demand misses (Unspecified)
system.caches.controllers3.ICache.m_demand_accesses            0                       # Number of cache demand accesses (Unspecified)
system.caches.controllers3.forwardFromL1.m_buf_msgs     0.929172                       # Average number of messages in buffer (Unspecified)
system.caches.controllers3.forwardFromL1.m_stall_time  4328.459041                       # Average number of cycles messages are stalled in this MB (Unspecified)
system.caches.controllers3.mandatoryQueue.m_buf_msgs     0.143831                       # Average number of messages in buffer (Unspecified)
system.caches.controllers3.mandatoryQueue.m_stall_time   865.818761                       # Average number of cycles messages are stalled in this MB (Unspecified)
system.caches.controllers3.power_state.pwrStateResidencyTicks::UNDEFINED  58873983000                       # Cumulative time (in ticks) in various power states (Tick)
system.caches.controllers3.requestToL1.m_buf_msgs     0.003649                       # Average number of messages in buffer (Unspecified)
system.caches.controllers3.requestToL1.m_stall_time   865.818744                       # Average number of cycles messages are stalled in this MB (Unspecified)
system.caches.controllers3.responseFromL1.m_buf_msgs     0.003096                       # Average number of messages in buffer (Unspecified)
system.caches.controllers3.responseFromL1.m_stall_time  4329.082678                       # Average number of cycles messages are stalled in this MB (Unspecified)
system.caches.controllers3.responseToL1.m_buf_msgs     0.000076                       # Average number of messages in buffer (Unspecified)
system.caches.controllers3.responseToL1.m_stall_time   865.230810                       # Average number of cycles messages are stalled in this MB (Unspecified)
system.caches.controllers3.xyzStatsObject.power_state.pwrStateResidencyTicks::UNDEFINED  58873983000                       # Cumulative time (in ticks) in various power states (Tick)
system.caches.controllers4.cacheMemory.m_demand_hits            0                       # Number of cache demand hits (Unspecified)
system.caches.controllers4.cacheMemory.m_demand_misses            0                       # Number of cache demand misses (Unspecified)
system.caches.controllers4.cacheMemory.m_demand_accesses            0                       # Number of cache demand accesses (Unspecified)
system.caches.controllers4.forwardFromDir.m_buf_msgs     0.002268                       # Average number of messages in buffer (Unspecified)
system.caches.controllers4.forwardFromDir.m_stall_time  5892.064174                       # Average number of cycles messages are stalled in this MB (Unspecified)
system.caches.controllers4.forwardFromDir.m_stall_count         2957                       # Number of times messages were stalled (Unspecified)
system.caches.controllers4.forwardToL0.m_buf_msgs     0.001506                       # Average number of messages in buffer (Unspecified)
system.caches.controllers4.forwardToL0.m_stall_time   999.847386                       # Average number of cycles messages are stalled in this MB (Unspecified)
system.caches.controllers4.power_state.pwrStateResidencyTicks::UNDEFINED  58873983000                       # Cumulative time (in ticks) in various power states (Tick)
system.caches.controllers4.requestFromL0.m_buf_msgs     0.100985                       # Average number of messages in buffer (Unspecified)
system.caches.controllers4.requestFromL0.m_stall_time 37882.828413                       # Average number of cycles messages are stalled in this MB (Unspecified)
system.caches.controllers4.requestFromL0.m_stall_count       104782                       # Number of times messages were stalled (Unspecified)
system.caches.controllers4.requestToDir.m_buf_msgs     0.003637                       # Average number of messages in buffer (Unspecified)
system.caches.controllers4.requestToDir.m_stall_time   999.999881                       # Average number of cycles messages are stalled in this MB (Unspecified)
system.caches.controllers4.responseFromDirOrSibling.m_buf_msgs     0.001936                       # Average number of messages in buffer (Unspecified)
system.caches.controllers4.responseFromDirOrSibling.m_stall_time 12749.084991                       # Average number of cycles messages are stalled in this MB (Unspecified)
system.caches.controllers4.responseFromL0.m_buf_msgs     0.000119                       # Average number of messages in buffer (Unspecified)
system.caches.controllers4.responseFromL0.m_stall_time  4998.894928                       # Average number of cycles messages are stalled in this MB (Unspecified)
system.caches.controllers4.responseToDirOrSibling.m_buf_msgs     0.000065                       # Average number of messages in buffer (Unspecified)
system.caches.controllers4.responseToDirOrSibling.m_stall_time   867.912283                       # Average number of cycles messages are stalled in this MB (Unspecified)
system.caches.controllers4.responseToL0.m_buf_msgs     0.003926                       # Average number of messages in buffer (Unspecified)
system.caches.controllers4.responseToL0.m_stall_time   999.997843                       # Average number of cycles messages are stalled in this MB (Unspecified)
system.caches.controllers4.xyzStatsObject.power_state.pwrStateResidencyTicks::UNDEFINED  58873983000                       # Cumulative time (in ticks) in various power states (Tick)
system.caches.controllers5.cacheMemory.m_demand_hits            0                       # Number of cache demand hits (Unspecified)
system.caches.controllers5.cacheMemory.m_demand_misses            0                       # Number of cache demand misses (Unspecified)
system.caches.controllers5.cacheMemory.m_demand_accesses            0                       # Number of cache demand accesses (Unspecified)
system.caches.controllers5.forwardFromDir.m_buf_msgs     0.001522                       # Average number of messages in buffer (Unspecified)
system.caches.controllers5.forwardFromDir.m_stall_time  5668.212460                       # Average number of cycles messages are stalled in this MB (Unspecified)
system.caches.controllers5.forwardFromDir.m_stall_count         2512                       # Number of times messages were stalled (Unspecified)
system.caches.controllers5.forwardToL0.m_buf_msgs     0.000931                       # Average number of messages in buffer (Unspecified)
system.caches.controllers5.forwardToL0.m_stall_time   867.737401                       # Average number of cycles messages are stalled in this MB (Unspecified)
system.caches.controllers5.power_state.pwrStateResidencyTicks::UNDEFINED  58873983000                       # Cumulative time (in ticks) in various power states (Tick)
system.caches.controllers5.requestFromL0.m_buf_msgs     0.082967                       # Average number of messages in buffer (Unspecified)
system.caches.controllers5.requestFromL0.m_stall_time 39745.965840                       # Average number of cycles messages are stalled in this MB (Unspecified)
system.caches.controllers5.requestFromL0.m_stall_count        63453                       # Number of times messages were stalled (Unspecified)
system.caches.controllers5.requestToDir.m_buf_msgs     0.002250                       # Average number of messages in buffer (Unspecified)
system.caches.controllers5.requestToDir.m_stall_time   867.914695                       # Average number of cycles messages are stalled in this MB (Unspecified)
system.caches.controllers5.responseFromDirOrSibling.m_buf_msgs     0.001206                       # Average number of messages in buffer (Unspecified)
system.caches.controllers5.responseFromDirOrSibling.m_stall_time 11108.472481                       # Average number of cycles messages are stalled in this MB (Unspecified)
system.caches.controllers5.responseFromL0.m_buf_msgs     0.000069                       # Average number of messages in buffer (Unspecified)
system.caches.controllers5.responseFromL0.m_stall_time  4336.809453                       # Average number of cycles messages are stalled in this MB (Unspecified)
system.caches.controllers5.responseToDirOrSibling.m_buf_msgs     0.000052                       # Average number of messages in buffer (Unspecified)
system.caches.controllers5.responseToDirOrSibling.m_stall_time   866.822634                       # Average number of cycles messages are stalled in this MB (Unspecified)
system.caches.controllers5.responseToL0.m_buf_msgs     0.002551                       # Average number of messages in buffer (Unspecified)
system.caches.controllers5.responseToL0.m_stall_time   867.914389                       # Average number of cycles messages are stalled in this MB (Unspecified)
system.caches.controllers5.xyzStatsObject.power_state.pwrStateResidencyTicks::UNDEFINED  58873983000                       # Cumulative time (in ticks) in various power states (Tick)
system.caches.controllers6.cacheMemory.m_demand_hits            0                       # Number of cache demand hits (Unspecified)
system.caches.controllers6.cacheMemory.m_demand_misses            0                       # Number of cache demand misses (Unspecified)
system.caches.controllers6.cacheMemory.m_demand_accesses            0                       # Number of cache demand accesses (Unspecified)
system.caches.controllers6.forwardFromDir.m_buf_msgs     0.001869                       # Average number of messages in buffer (Unspecified)
system.caches.controllers6.forwardFromDir.m_stall_time  5315.711237                       # Average number of cycles messages are stalled in this MB (Unspecified)
system.caches.controllers6.forwardFromDir.m_stall_count         1792                       # Number of times messages were stalled (Unspecified)
system.caches.controllers6.forwardToL0.m_buf_msgs     0.001351                       # Average number of messages in buffer (Unspecified)
system.caches.controllers6.forwardToL0.m_stall_time   866.727464                       # Average number of cycles messages are stalled in this MB (Unspecified)
system.caches.controllers6.power_state.pwrStateResidencyTicks::UNDEFINED  58873983000                       # Cumulative time (in ticks) in various power states (Tick)
system.caches.controllers6.requestFromL0.m_buf_msgs     0.107316                       # Average number of messages in buffer (Unspecified)
system.caches.controllers6.requestFromL0.m_stall_time 39480.028232                       # Average number of cycles messages are stalled in this MB (Unspecified)
system.caches.controllers6.requestFromL0.m_stall_count        92242                       # Number of times messages were stalled (Unspecified)
system.caches.controllers6.requestToDir.m_buf_msgs     0.003222                       # Average number of messages in buffer (Unspecified)
system.caches.controllers6.requestToDir.m_stall_time   866.923544                       # Average number of cycles messages are stalled in this MB (Unspecified)
system.caches.controllers6.responseFromDirOrSibling.m_buf_msgs     0.001700                       # Average number of messages in buffer (Unspecified)
system.caches.controllers6.responseFromDirOrSibling.m_stall_time 11047.067768                       # Average number of cycles messages are stalled in this MB (Unspecified)
system.caches.controllers6.responseFromL0.m_buf_msgs     0.000069                       # Average number of messages in buffer (Unspecified)
system.caches.controllers6.responseFromL0.m_stall_time  4333.325401                       # Average number of cycles messages are stalled in this MB (Unspecified)
system.caches.controllers6.responseToDirOrSibling.m_buf_msgs     0.000042                       # Average number of messages in buffer (Unspecified)
system.caches.controllers6.responseToDirOrSibling.m_stall_time   866.655701                       # Average number of cycles messages are stalled in this MB (Unspecified)
system.caches.controllers6.responseToL0.m_buf_msgs     0.003599                       # Average number of messages in buffer (Unspecified)
system.caches.controllers6.responseToL0.m_stall_time   866.920911                       # Average number of cycles messages are stalled in this MB (Unspecified)
system.caches.controllers6.xyzStatsObject.power_state.pwrStateResidencyTicks::UNDEFINED  58873983000                       # Cumulative time (in ticks) in various power states (Tick)
system.caches.controllers7.cacheMemory.m_demand_hits            0                       # Number of cache demand hits (Unspecified)
system.caches.controllers7.cacheMemory.m_demand_misses            0                       # Number of cache demand misses (Unspecified)
system.caches.controllers7.cacheMemory.m_demand_accesses            0                       # Number of cache demand accesses (Unspecified)
system.caches.controllers7.forwardFromDir.m_buf_msgs     0.001742                       # Average number of messages in buffer (Unspecified)
system.caches.controllers7.forwardFromDir.m_stall_time  5050.172705                       # Average number of cycles messages are stalled in this MB (Unspecified)
system.caches.controllers7.forwardFromDir.m_stall_count         2055                       # Number of times messages were stalled (Unspecified)
system.caches.controllers7.forwardToL0.m_buf_msgs     0.001172                       # Average number of messages in buffer (Unspecified)
system.caches.controllers7.forwardToL0.m_stall_time   865.577534                       # Average number of cycles messages are stalled in this MB (Unspecified)
system.caches.controllers7.power_state.pwrStateResidencyTicks::UNDEFINED  58873983000                       # Cumulative time (in ticks) in various power states (Tick)
system.caches.controllers7.requestFromL0.m_buf_msgs     0.101099                       # Average number of messages in buffer (Unspecified)
system.caches.controllers7.requestFromL0.m_stall_time 39338.875255                       # Average number of cycles messages are stalled in this MB (Unspecified)
system.caches.controllers7.requestFromL0.m_stall_count        82169                       # Number of times messages were stalled (Unspecified)
system.caches.controllers7.requestToDir.m_buf_msgs     0.002889                       # Average number of messages in buffer (Unspecified)
system.caches.controllers7.requestToDir.m_stall_time   865.818659                       # Average number of cycles messages are stalled in this MB (Unspecified)
system.caches.controllers7.responseFromDirOrSibling.m_buf_msgs     0.001542                       # Average number of messages in buffer (Unspecified)
system.caches.controllers7.responseFromDirOrSibling.m_stall_time 11094.925665                       # Average number of cycles messages are stalled in this MB (Unspecified)
system.caches.controllers7.responseFromL0.m_buf_msgs     0.000076                       # Average number of messages in buffer (Unspecified)
system.caches.controllers7.responseFromL0.m_stall_time  4326.204735                       # Average number of cycles messages are stalled in this MB (Unspecified)
system.caches.controllers7.responseToDirOrSibling.m_buf_msgs     0.000047                       # Average number of messages in buffer (Unspecified)
system.caches.controllers7.responseToDirOrSibling.m_stall_time   864.934788                       # Average number of cycles messages are stalled in this MB (Unspecified)
system.caches.controllers7.responseToL0.m_buf_msgs     0.003096                       # Average number of messages in buffer (Unspecified)
system.caches.controllers7.responseToL0.m_stall_time   865.816604                       # Average number of cycles messages are stalled in this MB (Unspecified)
system.caches.controllers7.xyzStatsObject.power_state.pwrStateResidencyTicks::UNDEFINED  58873983000                       # Cumulative time (in ticks) in various power states (Tick)
system.caches.controllers8.cacheMemory.m_demand_hits            0                       # Number of cache demand hits (Unspecified)
system.caches.controllers8.cacheMemory.m_demand_misses            0                       # Number of cache demand misses (Unspecified)
system.caches.controllers8.cacheMemory.m_demand_accesses            0                       # Number of cache demand accesses (Unspecified)
system.caches.controllers8.forwardToCache.m_buf_msgs     0.006356                       # Average number of messages in buffer (Unspecified)
system.caches.controllers8.forwardToCache.m_stall_time   999.931005                       # Average number of cycles messages are stalled in this MB (Unspecified)
system.caches.controllers8.power_state.pwrStateResidencyTicks::UNDEFINED  58873983000                       # Cumulative time (in ticks) in various power states (Tick)
system.caches.controllers8.requestFromCache.m_not_avail_count       118800                       # Number of times this buffer did not have N slots available (Unspecified)
system.caches.controllers8.requestFromCache.m_buf_msgs     0.011999                       # Average number of messages in buffer (Unspecified)
system.caches.controllers8.requestFromCache.m_stall_time 91693.880759                       # Average number of cycles messages are stalled in this MB (Unspecified)
system.caches.controllers8.requestFromCache.m_occupancy     0.011999                       # Average occupancy of buffer capacity (Unspecified)
system.caches.controllers8.requestToMemory.m_buf_msgs     0.004735                       # Average number of messages in buffer (Unspecified)
system.caches.controllers8.requestToMemory.m_stall_time   999.999796                       # Average number of cycles messages are stalled in this MB (Unspecified)
system.caches.controllers8.responseFromMemory.m_buf_msgs     0.004735                       # Average number of messages in buffer (Unspecified)
system.caches.controllers8.responseFromMemory.m_stall_time   999.998081                       # Average number of cycles messages are stalled in this MB (Unspecified)
system.caches.controllers8.responseToCache.m_buf_msgs     0.055605                       # Average number of messages in buffer (Unspecified)
system.caches.controllers8.responseToCache.m_stall_time  8999.981350                       # Average number of cycles messages are stalled in this MB (Unspecified)
system.caches.controllers8.xyzCacheMemory.m_demand_hits            0                       # Number of cache demand hits (Unspecified)
system.caches.controllers8.xyzCacheMemory.m_demand_misses            0                       # Number of cache demand misses (Unspecified)
system.caches.controllers8.xyzCacheMemory.m_demand_accesses            0                       # Number of cache demand accesses (Unspecified)
system.caches.controllers8.xyzStatsObject.power_state.pwrStateResidencyTicks::UNDEFINED  58873983000                       # Cumulative time (in ticks) in various power states (Tick)
system.caches.network.msg_count.Control       4116804                       (Unspecified)
system.caches.network.msg_byte.Control       32934432                       (Unspecified)
system.caches.network.msg_count.Data          2211628                       (Unspecified)
system.caches.network.msg_byte.Data         159237216                       (Unspecified)
system.caches.network.msg_count.Response_Data       500586                       (Unspecified)
system.caches.network.msg_byte.Response_Data     36042192                       (Unspecified)
system.caches.network.int_link_buffers102.m_buf_msgs     0.001351                       # Average number of messages in buffer (Unspecified)
system.caches.network.int_link_buffers102.m_stall_time  2600.456300                       # Average number of cycles messages are stalled in this MB (Unspecified)
system.caches.network.int_link_buffers103.m_buf_msgs     0.003599                       # Average number of messages in buffer (Unspecified)
system.caches.network.int_link_buffers103.m_stall_time  2600.762632                       # Average number of cycles messages are stalled in this MB (Unspecified)
system.caches.network.int_link_buffers107.m_buf_msgs     0.000022                       # Average number of messages in buffer (Unspecified)
system.caches.network.int_link_buffers107.m_stall_time  2597.092098                       # Average number of cycles messages are stalled in this MB (Unspecified)
system.caches.network.int_link_buffers11.m_buf_msgs     0.002976                       # Average number of messages in buffer (Unspecified)
system.caches.network.int_link_buffers11.m_stall_time  3082.744529                       # Average number of cycles messages are stalled in this MB (Unspecified)
system.caches.network.int_link_buffers114.m_buf_msgs     0.000007                       # Average number of messages in buffer (Unspecified)
system.caches.network.int_link_buffers114.m_stall_time  2599.967001                       # Average number of cycles messages are stalled in this MB (Unspecified)
system.caches.network.int_link_buffers12.m_buf_msgs     0.000069                       # Average number of messages in buffer (Unspecified)
system.caches.network.int_link_buffers12.m_stall_time  2602.180491                       # Average number of cycles messages are stalled in this MB (Unspecified)
system.caches.network.int_link_buffers121.m_buf_msgs     0.000013                       # Average number of messages in buffer (Unspecified)
system.caches.network.int_link_buffers121.m_stall_time  2594.632539                       # Average number of cycles messages are stalled in this MB (Unspecified)
system.caches.network.int_link_buffers126.m_buf_msgs     0.307626                       # Average number of messages in buffer (Unspecified)
system.caches.network.int_link_buffers126.m_stall_time 105543.052357                       # Average number of cycles messages are stalled in this MB (Unspecified)
system.caches.network.int_link_buffers137.m_buf_msgs     0.001172                       # Average number of messages in buffer (Unspecified)
system.caches.network.int_link_buffers137.m_stall_time  2597.282300                       # Average number of cycles messages are stalled in this MB (Unspecified)
system.caches.network.int_link_buffers138.m_buf_msgs     0.003096                       # Average number of messages in buffer (Unspecified)
[...]
system.caches.controllers2.xyzStatsObjectlatency::underflows            0      0.00%      0.00% # Mem access latency (Unspecified)
system.caches.controllers2.xyzStatsObjectlatency::0-49999       211913    100.00%    100.00% # Mem access latency (Unspecified)
system.caches.controllers2.xyzStatsObjectlatency::50000-99999            0      0.00%    100.00% # Mem access latency (Unspecified)
system.caches.controllers2.xyzStatsObjectlatency::100000            0      0.00%    100.00% # Mem access latency (Unspecified)
system.caches.controllers2.xyzStatsObjectlatency::overflows            0      0.00%    100.00% # Mem access latency (Unspecified)
system.caches.controllers2.xyzStatsObjectlatency::min_value           10                       # Mem access latency (Unspecified)
system.caches.controllers2.xyzStatsObjectlatency::max_value         1056                       # Mem access latency (Unspecified)
system.caches.controllers2.xyzStatsObjectlatency::total       211913                       # Mem access latency (Unspecified)
system.caches.controllers3.xyzStatsObject.total_put            0                       # Total number of put (PutM + PutS) (Unspecified)
system.caches.controllers3.xyzStatsObject.total_put_as_wt            0                       # Total number of put as write through (Unspecified)
system.caches.controllers3.xyzStatsObject.total_putm            0                       # Total number of PutM (Unspecified)
system.caches.controllers3.xyzStatsObject.total_putm_as_wt            0                       # Total number of PutM as write through (Unspecified)
system.caches.controllers3.xyzStatsObject.total_puts            0                       # Total number of PutS (Unspecified)
system.caches.controllers3.xyzStatsObject.total_puts_as_wt            0                       # Total number of PutS as write through (Unspecified)
system.caches.controllers3.xyzStatsObject.total_repl            0                       # Total Replacement (Unspecified)
system.caches.controllers3.xyzStatsObject.total_repl_llc            0                       # Total Replacement of LLC line (Unspecified)
system.caches.controllers3.xyzStatsObject.total_repl_owned            0                       # Total Replacement of owned line (Unspecified)
system.caches.controllers3.xyzStatsObject.total_repl_shared            0                       # Total Replacement of shared line (Unspecified)
system.caches.controllers3.xyzStatsObject.wt_putRatio          nan                       # WT / Put (Unspecified)
system.caches.controllers3.xyzStatsObject.wt_putmRatio          nan                       # PutM WT / PutM (Unspecified)
system.caches.controllers3.xyzStatsObject.wt_putsRatio          nan                       # PutS WT / PutS (Unspecified)
system.caches.controllers3.xyzStatsObjectlatency::samples       182301                       # Mem access latency (Unspecified)
system.caches.controllers3.xyzStatsObjectlatency::mean   134.284897                       # Mem access latency (Unspecified)
system.caches.controllers3.xyzStatsObjectlatency::stdev   184.635482                       # Mem access latency (Unspecified)
system.caches.controllers3.xyzStatsObjectlatency::underflows            0      0.00%      0.00% # Mem access latency (Unspecified)
system.caches.controllers3.xyzStatsObjectlatency::0-49999       182301    100.00%    100.00% # Mem access latency (Unspecified)
system.caches.controllers3.xyzStatsObjectlatency::50000-99999            0      0.00%    100.00% # Mem access latency (Unspecified)
system.caches.controllers3.xyzStatsObjectlatency::100000            0      0.00%    100.00% # Mem access latency (Unspecified)
system.caches.controllers3.xyzStatsObjectlatency::overflows            0      0.00%    100.00% # Mem access latency (Unspecified)
system.caches.controllers3.xyzStatsObjectlatency::min_value           10                       # Mem access latency (Unspecified)
system.caches.controllers3.xyzStatsObjectlatency::max_value         1102                       # Mem access latency (Unspecified)
system.caches.controllers3.xyzStatsObjectlatency::total       182301                       # Mem access latency (Unspecified)
system.caches.controllers4.xyzStatsObject.total_put            0                       # Total number of put (PutM + PutS) (Unspecified)
system.caches.controllers4.xyzStatsObject.total_put_as_wt            0                       # Total number of put as write through (Unspecified)
system.caches.controllers4.xyzStatsObject.total_putm            0                       # Total number of PutM (Unspecified)
system.caches.controllers4.xyzStatsObject.total_putm_as_wt            0                       # Total number of PutM as write through (Unspecified)
system.caches.controllers4.xyzStatsObject.total_puts            0                       # Total number of PutS (Unspecified)
system.caches.controllers4.xyzStatsObject.total_puts_as_wt            0                       # Total number of PutS as write through (Unspecified)
system.caches.controllers4.xyzStatsObject.total_repl            0                       # Total Replacement (Unspecified)
system.caches.controllers4.xyzStatsObject.total_repl_llc            0                       # Total Replacement of LLC line (Unspecified)
system.caches.controllers4.xyzStatsObject.total_repl_owned            0                       # Total Replacement of owned line (Unspecified)
system.caches.controllers4.xyzStatsObject.total_repl_shared            0                       # Total Replacement of shared line (Unspecified)
system.caches.controllers4.xyzStatsObject.wt_putRatio          nan                       # WT / Put (Unspecified)
system.caches.controllers4.xyzStatsObject.wt_putmRatio          nan                       # PutM WT / PutM (Unspecified)
system.caches.controllers4.xyzStatsObject.wt_putsRatio          nan                       # PutS WT / PutS (Unspecified)
system.caches.controllers4.xyzStatsObjectlatency::samples       113762                       # Mem access latency (Unspecified)
system.caches.controllers4.xyzStatsObjectlatency::mean   183.694292                       # Mem access latency (Unspecified)
system.caches.controllers4.xyzStatsObjectlatency::stdev   141.924273                       # Mem access latency (Unspecified)
system.caches.controllers4.xyzStatsObjectlatency::underflows            0      0.00%      0.00% # Mem access latency (Unspecified)
system.caches.controllers4.xyzStatsObjectlatency::0-49999       113762    100.00%    100.00% # Mem access latency (Unspecified)
system.caches.controllers4.xyzStatsObjectlatency::50000-99999            0      0.00%    100.00% # Mem access latency (Unspecified)
system.caches.controllers4.xyzStatsObjectlatency::100000            0      0.00%    100.00% # Mem access latency (Unspecified)
system.caches.controllers4.xyzStatsObjectlatency::overflows            0      0.00%    100.00% # Mem access latency (Unspecified)
system.caches.controllers4.xyzStatsObjectlatency::min_value           15                       # Mem access latency (Unspecified)
system.caches.controllers4.xyzStatsObjectlatency::max_value          732                       # Mem access latency (Unspecified)
system.caches.controllers4.xyzStatsObjectlatency::total       113762                       # Mem access latency (Unspecified)
system.caches.controllers5.xyzStatsObject.total_put            0                       # Total number of put (PutM + PutS) (Unspecified)
system.caches.controllers5.xyzStatsObject.total_put_as_wt            0                       # Total number of put as write through (Unspecified)
system.caches.controllers5.xyzStatsObject.total_putm            0                       # Total number of PutM (Unspecified)
system.caches.controllers5.xyzStatsObject.total_putm_as_wt            0                       # Total number of PutM as write through (Unspecified)
system.caches.controllers5.xyzStatsObject.total_puts            0                       # Total number of PutS (Unspecified)
system.caches.controllers5.xyzStatsObject.total_puts_as_wt            0                       # Total number of PutS as write through (Unspecified)
system.caches.controllers5.xyzStatsObject.total_repl            0                       # Total Replacement (Unspecified)
system.caches.controllers5.xyzStatsObject.total_repl_llc            0                       # Total Replacement of LLC line (Unspecified)
system.caches.controllers5.xyzStatsObject.total_repl_owned            0                       # Total Replacement of owned line (Unspecified)
system.caches.controllers5.xyzStatsObject.total_repl_shared            0                       # Total Replacement of shared line (Unspecified)
system.caches.controllers5.xyzStatsObject.wt_putRatio          nan                       # WT / Put (Unspecified)
system.caches.controllers5.xyzStatsObject.wt_putmRatio          nan                       # PutM WT / PutM (Unspecified)
system.caches.controllers5.xyzStatsObject.wt_putsRatio          nan                       # PutS WT / PutS (Unspecified)
system.caches.controllers5.xyzStatsObjectlatency::samples        70851                       # Mem access latency (Unspecified)
system.caches.controllers5.xyzStatsObjectlatency::mean   181.760074                       # Mem access latency (Unspecified)
system.caches.controllers5.xyzStatsObjectlatency::stdev   155.109372                       # Mem access latency (Unspecified)
system.caches.controllers5.xyzStatsObjectlatency::underflows            0      0.00%      0.00% # Mem access latency (Unspecified)
system.caches.controllers5.xyzStatsObjectlatency::0-49999        70851    100.00%    100.00% # Mem access latency (Unspecified)
system.caches.controllers5.xyzStatsObjectlatency::50000-99999            0      0.00%    100.00% # Mem access latency (Unspecified)
system.caches.controllers5.xyzStatsObjectlatency::100000            0      0.00%    100.00% # Mem access latency (Unspecified)
system.caches.controllers5.xyzStatsObjectlatency::overflows            0      0.00%    100.00% # Mem access latency (Unspecified)
system.caches.controllers5.xyzStatsObjectlatency::min_value           15                       # Mem access latency (Unspecified)
system.caches.controllers5.xyzStatsObjectlatency::max_value          732                       # Mem access latency (Unspecified)
system.caches.controllers5.xyzStatsObjectlatency::total        70851                       # Mem access latency (Unspecified)
system.caches.controllers6.xyzStatsObject.total_put            0                       # Total number of put (PutM + PutS) (Unspecified)
system.caches.controllers6.xyzStatsObject.total_put_as_wt            0                       # Total number of put as write through (Unspecified)
system.caches.controllers6.xyzStatsObject.total_putm            0                       # Total number of PutM (Unspecified)
system.caches.controllers6.xyzStatsObject.total_putm_as_wt            0                       # Total number of PutM as write through (Unspecified)
system.caches.controllers6.xyzStatsObject.total_puts            0                       # Total number of PutS (Unspecified)
system.caches.controllers6.xyzStatsObject.total_puts_as_wt            0                       # Total number of PutS as write through (Unspecified)
system.caches.controllers6.xyzStatsObject.total_repl            0                       # Total Replacement (Unspecified)
system.caches.controllers6.xyzStatsObject.total_repl_llc            0                       # Total Replacement of LLC line (Unspecified)
system.caches.controllers6.xyzStatsObject.total_repl_owned            0                       # Total Replacement of owned line (Unspecified)
system.caches.controllers6.xyzStatsObject.total_repl_shared            0                       # Total Replacement of shared line (Unspecified)
system.caches.controllers6.xyzStatsObject.wt_putRatio          nan                       # WT / Put (Unspecified)
system.caches.controllers6.xyzStatsObject.wt_putmRatio          nan                       # PutM WT / PutM (Unspecified)
system.caches.controllers6.xyzStatsObject.wt_putsRatio          nan                       # PutS WT / PutS (Unspecified)
system.caches.controllers6.xyzStatsObjectlatency::samples        99962                       # Mem access latency (Unspecified)
system.caches.controllers6.xyzStatsObjectlatency::mean   172.231588                       # Mem access latency (Unspecified)
system.caches.controllers6.xyzStatsObjectlatency::stdev   146.461779                       # Mem access latency (Unspecified)
system.caches.controllers6.xyzStatsObjectlatency::underflows            0      0.00%      0.00% # Mem access latency (Unspecified)
system.caches.controllers6.xyzStatsObjectlatency::0-49999        99962    100.00%    100.00% # Mem access latency (Unspecified)
system.caches.controllers6.xyzStatsObjectlatency::50000-99999            0      0.00%    100.00% # Mem access latency (Unspecified)
system.caches.controllers6.xyzStatsObjectlatency::100000            0      0.00%    100.00% # Mem access latency (Unspecified)
system.caches.controllers6.xyzStatsObjectlatency::overflows            0      0.00%    100.00% # Mem access latency (Unspecified)
system.caches.controllers6.xyzStatsObjectlatency::min_value           15                       # Mem access latency (Unspecified)
system.caches.controllers6.xyzStatsObjectlatency::max_value          732                       # Mem access latency (Unspecified)
system.caches.controllers6.xyzStatsObjectlatency::total        99962                       # Mem access latency (Unspecified)
system.caches.controllers7.xyzStatsObject.total_put            0                       # Total number of put (PutM + PutS) (Unspecified)
system.caches.controllers7.xyzStatsObject.total_put_as_wt            0                       # Total number of put as write through (Unspecified)
system.caches.controllers7.xyzStatsObject.total_putm            0                       # Total number of PutM (Unspecified)
system.caches.controllers7.xyzStatsObject.total_putm_as_wt            0                       # Total number of PutM as write through (Unspecified)
system.caches.controllers7.xyzStatsObject.total_puts            0                       # Total number of PutS (Unspecified)
system.caches.controllers7.xyzStatsObject.total_puts_as_wt            0                       # Total number of PutS as write through (Unspecified)
system.caches.controllers7.xyzStatsObject.total_repl            0                       # Total Replacement (Unspecified)
system.caches.controllers7.xyzStatsObject.total_repl_llc            0                       # Total Replacement of LLC line (Unspecified)
system.caches.controllers7.xyzStatsObject.total_repl_owned            0                       # Total Replacement of owned line (Unspecified)
system.caches.controllers7.xyzStatsObject.total_repl_shared            0                       # Total Replacement of shared line (Unspecified)
system.caches.controllers7.xyzStatsObject.wt_putRatio          nan                       # WT / Put (Unspecified)
system.caches.controllers7.xyzStatsObject.wt_putmRatio          nan                       # PutM WT / PutM (Unspecified)
system.caches.controllers7.xyzStatsObject.wt_putsRatio          nan                       # PutS WT / PutS (Unspecified)
system.caches.controllers7.xyzStatsObjectlatency::samples        90629                       # Mem access latency (Unspecified)
system.caches.controllers7.xyzStatsObjectlatency::mean   185.256022                       # Mem access latency (Unspecified)
system.caches.controllers7.xyzStatsObjectlatency::stdev   149.757281                       # Mem access latency (Unspecified)
system.caches.controllers7.xyzStatsObjectlatency::underflows            0      0.00%      0.00% # Mem access latency (Unspecified)
system.caches.controllers7.xyzStatsObjectlatency::0-49999        90629    100.00%    100.00% # Mem access latency (Unspecified)
system.caches.controllers7.xyzStatsObjectlatency::50000-99999            0      0.00%    100.00% # Mem access latency (Unspecified)
system.caches.controllers7.xyzStatsObjectlatency::100000            0      0.00%    100.00% # Mem access latency (Unspecified)
system.caches.controllers7.xyzStatsObjectlatency::overflows            0      0.00%    100.00% # Mem access latency (Unspecified)
system.caches.controllers7.xyzStatsObjectlatency::min_value           15                       # Mem access latency (Unspecified)
system.caches.controllers7.xyzStatsObjectlatency::max_value          732                       # Mem access latency (Unspecified)
system.caches.controllers7.xyzStatsObjectlatency::total        90629                       # Mem access latency (Unspecified)
system.caches.controllers8.xyzStatsObject.total_put       383974                       # Total number of put (PutM + PutS) (Unspecified)
system.caches.controllers8.xyzStatsObject.total_put_as_wt       165318                       # Total number of put as write through (Unspecified)
system.caches.controllers8.xyzStatsObject.total_putm        59400                       # Total number of PutM (Unspecified)
system.caches.controllers8.xyzStatsObject.total_putm_as_wt        32806                       # Total number of PutM as write through (Unspecified)
system.caches.controllers8.xyzStatsObject.total_puts       324574                       # Total number of PutS (Unspecified)
system.caches.controllers8.xyzStatsObject.total_puts_as_wt       132512                       # Total number of PutS as write through (Unspecified)
system.caches.controllers8.xyzStatsObject.total_repl            0                       # Total Replacement (Unspecified)
system.caches.controllers8.xyzStatsObject.total_repl_llc            0                       # Total Replacement of LLC line (Unspecified)
system.caches.controllers8.xyzStatsObject.total_repl_owned            0                       # Total Replacement of owned line (Unspecified)
system.caches.controllers8.xyzStatsObject.total_repl_shared            0                       # Total Replacement of shared line (Unspecified)
system.caches.controllers8.xyzStatsObject.wt_putRatio     0.430545                       # WT / Put (Unspecified)
system.caches.controllers8.xyzStatsObject.wt_putmRatio     0.552290                       # PutM WT / PutM (Unspecified)
system.caches.controllers8.xyzStatsObject.wt_putsRatio     0.408264                       # PutS WT / PutS (Unspecified)
system.caches.controllers8.xyzStatsObjectlatency::samples            0                       # Mem access latency (Unspecified)
system.caches.controllers8.xyzStatsObjectlatency::mean          nan                       # Mem access latency (Unspecified)
system.caches.controllers8.xyzStatsObjectlatency::stdev          nan                       # Mem access latency (Unspecified)
system.caches.controllers8.xyzStatsObjectlatency::underflows            0                       # Mem access latency (Unspecified)
system.caches.controllers8.xyzStatsObjectlatency::0-49999            0                       # Mem access latency (Unspecified)
system.caches.controllers8.xyzStatsObjectlatency::50000-99999            0                       # Mem access latency (Unspecified)
system.caches.controllers8.xyzStatsObjectlatency::100000            0                       # Mem access latency (Unspecified)
system.caches.controllers8.xyzStatsObjectlatency::overflows            0                       # Mem access latency (Unspecified)
system.caches.controllers8.xyzStatsObjectlatency::min_value            0                       # Mem access latency (Unspecified)
system.caches.controllers8.xyzStatsObjectlatency::max_value            0                       # Mem access latency (Unspecified)
system.caches.controllers8.xyzStatsObjectlatency::total            0                       # Mem access latency (Unspecified)

---------- End Simulation Statistics   ----------
