
---------- Begin Simulation Statistics ----------
simSeconds                                   0.040456                       # Number of seconds simulated (Second)
simTicks                                  40456191000                       # Number of ticks simulated (Tick)
finalTick                                 40456191000                       # Number of ticks from beginning of simulation (restored from checkpoints and never reset) (Tick)
simFreq                                  1000000000000                       # The number of ticks per simulated second ((Tick/Second))
hostSeconds                                     30.59                       # Real time elapsed on the host (Second)
hostTickRate                               1322540350                       # The number of ticks simulated per host second (ticks/s) ((Tick/Second))
hostMemory                                    4955352                       # Number of bytes of host memory used (Byte)
simInsts                                     20709932                       # Number of instructions simulated (Count)
simOps                                       33225182                       # Number of ops (including micro ops) simulated (Count)
hostInstRate                                   677000                       # Simulator instruction rate (inst/s) ((Count/Second))
hostOpRate                                    1086114                       # Simulator op (including micro ops) rate (op/s) ((Count/Second))
system.caches.m_outstandReqHistSeqr::bucket_size            1                       (Unspecified)
system.caches.m_outstandReqHistSeqr::max_bucket            9                       (Unspecified)
system.caches.m_outstandReqHistSeqr::samples     32287701                       (Unspecified)
system.caches.m_outstandReqHistSeqr::mean            1                       (Unspecified)
system.caches.m_outstandReqHistSeqr::gmean            1                       (Unspecified)
system.caches.m_outstandReqHistSeqr      |           0      0.00%      0.00% |    32287701    100.00%    100.00% |           0      0.00%    100.00% |           0      0.00%    100.00% |           0      0.00%    100.00% |           0      0.00%    100.00% |           0      0.00%    100.00% |           0      0.00%    100.00% |           0      0.00%    100.00% |           0      0.00%    100.00% (Unspecified)
system.caches.m_outstandReqHistSeqr::total     32287701                       (Unspecified)
system.caches.m_latencyHistSeqr::bucket_size          128                       (Unspecified)
system.caches.m_latencyHistSeqr::max_bucket         1279                       (Unspecified)
system.caches.m_latencyHistSeqr::samples     32287701                       (Unspecified)
system.caches.m_latencyHistSeqr::mean        2.229074                       (Unspecified)
system.caches.m_latencyHistSeqr::gmean       1.081352                       (Unspecified)
system.caches.m_latencyHistSeqr::stdev      17.139832                       (Unspecified)
system.caches.m_latencyHistSeqr          |    32210757     99.76%     99.76% |       39172      0.12%     99.88% |       24062      0.07%     99.96% |        6340      0.02%     99.98% |        3401      0.01%     99.99% |        1705      0.01%     99.99% |        1211      0.00%    100.00% |        1038      0.00%    100.00% |          15      0.00%    100.00% |           0      0.00%    100.00% (Unspecified)
system.caches.m_latencyHistSeqr::total       32287701                       (Unspecified)
system.caches.m_hitLatencyHistSeqr::bucket_size            1                       (Unspecified)
system.caches.m_hitLatencyHistSeqr::max_bucket            9                       (Unspecified)
system.caches.m_hitLatencyHistSeqr::samples     31511616                       (Unspecified)
system.caches.m_hitLatencyHistSeqr::mean            1                       (Unspecified)
system.caches.m_hitLatencyHistSeqr::gmean            1                       (Unspecified)
system.caches.m_hitLatencyHistSeqr       |           0      0.00%      0.00% |    31511616    100.00%    100.00% |           0      0.00%    100.00% |           0      0.00%    100.00% |           0      0.00%    100.00% |           0      0.00%    100.00% |           0      0.00%    100.00% |           0      0.00%    100.00% |           0      0.00%    100.00% |           0      0.00%    100.00% (Unspecified)
system.caches.m_hitLatencyHistSeqr::total     31511616                       (Unspecified)
system.caches.m_missLatencyHistSeqr::bucket_size          128                       (Unspecified)
system.caches.m_missLatencyHistSeqr::max_bucket         1279                       (Unspecified)
system.caches.m_missLatencyHistSeqr::samples       776085                       (Unspecified)
system.caches.m_missLatencyHistSeqr::mean    52.133528                       (Unspecified)
system.caches.m_missLatencyHistSeqr::gmean    25.890548                       (Unspecified)
system.caches.m_missLatencyHistSeqr::stdev    98.337091                       (Unspecified)
system.caches.m_missLatencyHistSeqr      |      699141     90.09%     90.09% |       39172      5.05%     95.13% |       24062      3.10%     98.23% |        6340      0.82%     99.05% |        3401      0.44%     99.49% |        1705      0.22%     99.71% |        1211      0.16%     99.86% |        1038      0.13%    100.00% |          15      0.00%    100.00% |           0      0.00%    100.00% (Unspecified)
system.caches.m_missLatencyHistSeqr::total       776085                       (Unspecified)
system.caches.L0Cache_Controller.Load    |      884514     28.07%     28.07% |      636397     20.19%     48.26% |      821517     26.07%     74.33% |      808836     25.67%    100.00% (Unspecified)
system.caches.L0Cache_Controller.Load::total      3151264                       (Unspecified)
system.caches.L0Cache_Controller.Ifetch  |     7721293     27.29%     27.29% |     5856849     20.70%     47.98% |     7299619     25.80%     73.78% |     7420784     26.22%    100.00% (Unspecified)
system.caches.L0Cache_Controller.Ifetch::total     28298545                       (Unspecified)
system.caches.L0Cache_Controller.Store   |      264819     31.61%     31.61% |      168582     20.12%     51.73% |      166597     19.88%     71.61% |      237894     28.39%    100.00% (Unspecified)
system.caches.L0Cache_Controller.Store::total       837892                       (Unspecified)
system.caches.L0Cache_Controller.Replacement |      191485     29.74%     29.74% |      125400     19.47%     49.21% |      177896     27.63%     76.84% |      149129     23.16%    100.00% (Unspecified)
system.caches.L0Cache_Controller.Replacement::total       643910                       (Unspecified)
system.caches.L0Cache_Controller.Inv     |       88791     30.37%     30.37% |       54815     18.75%     49.12% |       79609     27.23%     76.36% |       69117     23.64%    100.00% (Unspecified)
system.caches.L0Cache_Controller.Inv::total       292332                       (Unspecified)
system.caches.L0Cache_Controller.Data    |      213851     30.40%     30.40% |      134713     19.15%     49.55% |      190904     27.14%     76.69% |      164017     23.31%    100.00% (Unspecified)
system.caches.L0Cache_Controller.Data::total       703485                       (Unspecified)
system.caches.L0Cache_Controller.ExData  |       17423     24.00%     24.00% |       15649     21.56%     45.55% |       21123     29.10%     74.65% |       18405     25.35%    100.00% (Unspecified)
system.caches.L0Cache_Controller.ExData::total        72600                       (Unspecified)
system.caches.L0Cache_Controller.I.Load  |      162498     27.38%     27.38% |      119514     20.14%     47.53% |      171225     28.86%     76.38% |      140157     23.62%    100.00% (Unspecified)
system.caches.L0Cache_Controller.I.Load::total       593394                       (Unspecified)
system.caches.L0Cache_Controller.I.Ifetch |       45001     41.34%     41.34% |       16982     15.60%     56.95% |       23332     21.44%     78.38% |       23532     21.62%    100.00% (Unspecified)
system.caches.L0Cache_Controller.I.Ifetch::total       108847                       (Unspecified)
system.caches.L0Cache_Controller.I.Store |       14883     33.24%     33.24% |        8231     18.38%     51.62% |       10693     23.88%     75.50% |       10973     24.50%    100.00% (Unspecified)
system.caches.L0Cache_Controller.I.Store::total        44780                       (Unspecified)
system.caches.L0Cache_Controller.I.Inv   |       57954     30.59%     30.59% |       35545     18.76%     49.35% |       52313     27.61%     76.96% |       43643     23.04%    100.00% (Unspecified)
system.caches.L0Cache_Controller.I.Inv::total       189455                       (Unspecified)
system.caches.L0Cache_Controller.IS_D.Data |      190076     30.19%     30.19% |      120847     19.19%     49.38% |      173434     27.54%     76.93% |      145284     23.07%    100.00% (Unspecified)
system.caches.L0Cache_Controller.IS_D.Data::total       629641                       (Unspecified)
system.caches.L0Cache_Controller.IS_D.ExData |       17423     24.00%     24.00% |       15649     21.56%     45.55% |       21123     29.10%     74.65% |       18405     25.35%    100.00% (Unspecified)
system.caches.L0Cache_Controller.IS_D.ExData::total        72600                       (Unspecified)
system.caches.L0Cache_Controller.IM_D.Inv |           0      0.00%      0.00% |           1    100.00%    100.00% |           0      0.00%    100.00% |           0      0.00%    100.00% (Unspecified)
system.caches.L0Cache_Controller.IM_D.Inv::total            1                       (Unspecified)
system.caches.L0Cache_Controller.IM_D.Data |       23775     32.20%     32.20% |       13866     18.78%     50.97% |       17470     23.66%     74.63% |       18733     25.37%    100.00% (Unspecified)
system.caches.L0Cache_Controller.IM_D.Data::total        73844                       (Unspecified)
system.caches.L0Cache_Controller.S.Load  |      395383     28.46%     28.46% |      278304     20.03%     48.50% |      359176     25.86%     74.35% |      356256     25.65%    100.00% (Unspecified)
system.caches.L0Cache_Controller.S.Load::total      1389119                       (Unspecified)
system.caches.L0Cache_Controller.S.Ifetch |     7676292     27.23%     27.23% |     5839867     20.72%     47.95% |     7276287     25.81%     73.76% |     7397252     26.24%    100.00% (Unspecified)
system.caches.L0Cache_Controller.S.Ifetch::total     28189698                       (Unspecified)
system.caches.L0Cache_Controller.S.Store |        8892     30.59%     30.59% |        5635     19.39%     49.98% |        6777     23.32%     73.30% |        7760     26.70%    100.00% (Unspecified)
system.caches.L0Cache_Controller.S.Store::total        29064                       (Unspecified)
system.caches.L0Cache_Controller.S.Replacement |      157420     30.43%     30.43% |       99915     19.31%     49.74% |      143443     27.73%     77.46% |      116596     22.54%    100.00% (Unspecified)
system.caches.L0Cache_Controller.S.Replacement::total       517374                       (Unspecified)
system.caches.L0Cache_Controller.S.Inv   |       23724     28.57%     28.57% |       15254     18.37%     46.94% |       23171     27.91%     74.85% |       20884     25.15%    100.00% (Unspecified)
system.caches.L0Cache_Controller.S.Inv::total        83033                       (Unspecified)
system.caches.L0Cache_Controller.M.Load  |      326633     27.95%     27.95% |      238579     20.41%     48.36% |      291116     24.91%     73.27% |      312423     26.73%    100.00% (Unspecified)
system.caches.L0Cache_Controller.M.Load::total      1168751                       (Unspecified)
system.caches.L0Cache_Controller.M.Store |      241044     31.55%     31.55% |      154716     20.25%     51.80% |      149127     19.52%     71.32% |      219161     28.68%    100.00% (Unspecified)
system.caches.L0Cache_Controller.M.Store::total       764048                       (Unspecified)
system.caches.L0Cache_Controller.M.Replacement |       34065     26.92%     26.92% |       25485     20.14%     47.06% |       34453     27.23%     74.29% |       32533     25.71%    100.00% (Unspecified)
system.caches.L0Cache_Controller.M.Replacement::total       126536                       (Unspecified)
system.caches.L0Cache_Controller.M.Inv   |        7113     35.85%     35.85% |        4015     20.23%     56.08% |        4125     20.79%     76.87% |        4590     23.13%    100.00% (Unspecified)
system.caches.L0Cache_Controller.M.Inv::total        19843                       (Unspecified)
system.caches.L1Cache_Controller.Load    |      207499     29.55%     29.55% |      136496     19.44%     48.99% |      194557     27.71%     76.69% |      163689     23.31%    100.00% (Unspecified)
system.caches.L1Cache_Controller.Load::total       702241                       (Unspecified)
system.caches.L1Cache_Controller.Store   |       23775     32.20%     32.20% |       13866     18.78%     50.97% |       17470     23.66%     74.63% |       18733     25.37%    100.00% (Unspecified)
system.caches.L1Cache_Controller.Store::total        73844                       (Unspecified)
system.caches.L1Cache_Controller.PutM    |       34065     26.92%     26.92% |       25485     20.14%     47.06% |       34453     27.23%     74.29% |       32533     25.71%    100.00% (Unspecified)
system.caches.L1Cache_Controller.PutM::total       126536                       (Unspecified)
system.caches.L1Cache_Controller.Replacement |      209376     30.58%     30.58% |      126887     18.53%     49.11% |      184309     26.92%     76.03% |      164113     23.97%    100.00% (Unspecified)
system.caches.L1Cache_Controller.Replacement::total       684685                       (Unspecified)
system.caches.L1Cache_Controller.FwdGetM |        6686     31.65%     31.65% |        5396     25.54%     57.20% |        4177     19.77%     76.97% |        4865     23.03%    100.00% (Unspecified)
system.caches.L1Cache_Controller.FwdGetM::total        21124                       (Unspecified)
system.caches.L1Cache_Controller.Inv     |         124     21.99%     21.99% |         104     18.44%     40.43% |         191     33.87%     74.29% |         145     25.71%    100.00% (Unspecified)
system.caches.L1Cache_Controller.Inv::total          564                       (Unspecified)
system.caches.L1Cache_Controller.PutAck  |      100452     30.31%     30.31% |       61752     18.63%     48.94% |       89748     27.08%     76.02% |       79460     23.98%    100.00% (Unspecified)
system.caches.L1Cache_Controller.PutAck::total       331412                       (Unspecified)
system.caches.L1Cache_Controller.DataDirNoAcks |      110322     30.31%     30.31% |       68082     18.70%     49.01% |       97473     26.78%     75.79% |       88104     24.21%    100.00% (Unspecified)
system.caches.L1Cache_Controller.DataDirNoAcks::total       363981                       (Unspecified)
system.caches.L1Cache_Controller.DataDirAcks |           1     50.00%     50.00% |           0      0.00%     50.00% |           0      0.00%     50.00% |           1     50.00%    100.00% (Unspecified)
system.caches.L1Cache_Controller.DataDirAcks::total            2                       (Unspecified)
system.caches.L1Cache_Controller.DataOwner |        3479     30.13%     30.13% |        2887     25.00%     55.14% |        2550     22.09%     77.22% |        2630     22.78%    100.00% (Unspecified)
system.caches.L1Cache_Controller.DataOwner::total        11546                       (Unspecified)
system.caches.L1Cache_Controller.InvAck  |         203     36.12%     36.12% |         107     19.04%     55.16% |          98     17.44%     72.60% |         154     27.40%    100.00% (Unspecified)
system.caches.L1Cache_Controller.InvAck::total          562                       (Unspecified)
system.caches.L1Cache_Controller.LastInvAck |           1     50.00%     50.00% |           0      0.00%     50.00% |           0      0.00%     50.00% |           1     50.00%    100.00% (Unspecified)
system.caches.L1Cache_Controller.LastInvAck::total            2                       (Unspecified)
system.caches.L1Cache_Controller.WB_Data |        7113     35.85%     35.85% |        4015     20.23%     56.08% |        4125     20.79%     76.87% |        4590     23.13%    100.00% (Unspecified)
system.caches.L1Cache_Controller.WB_Data::total        19843                       (Unspecified)
system.caches.L1Cache_Controller.I.Load  |       93669     29.96%     29.96% |       59005     18.87%     48.84% |       85192     27.25%     76.09% |       74751     23.91%    100.00% (Unspecified)
system.caches.L1Cache_Controller.I.Load::total       312617                       (Unspecified)
system.caches.L1Cache_Controller.I.Store |       10669     33.99%     33.99% |        5872     18.71%     52.70% |        7175     22.86%     75.56% |        7670     24.44%    100.00% (Unspecified)
system.caches.L1Cache_Controller.I.Store::total        31386                       (Unspecified)
system.caches.L1Cache_Controller.IS_D.FwdGetM |          13     26.00%     26.00% |          18     36.00%     62.00% |           6     12.00%     74.00% |          13     26.00%    100.00% (Unspecified)
system.caches.L1Cache_Controller.IS_D.FwdGetM::total           50                       (Unspecified)
system.caches.L1Cache_Controller.IS_D.DataDirNoAcks |       91242     29.97%     29.97% |       56989     18.72%     48.70% |       83238     27.34%     76.04% |       72938     23.96%    100.00% (Unspecified)
system.caches.L1Cache_Controller.IS_D.DataDirNoAcks::total       304407                       (Unspecified)
system.caches.L1Cache_Controller.IS_D.DataOwner |        2427     29.56%     29.56% |        2016     24.56%     54.12% |        1954     23.80%     77.92% |        1813     22.08%    100.00% (Unspecified)
system.caches.L1Cache_Controller.IS_D.DataOwner::total         8210                       (Unspecified)
system.caches.L1Cache_Controller.IM_AD.FwdGetM |          19     38.78%     38.78% |           6     12.24%     51.02% |          11     22.45%     73.47% |          13     26.53%    100.00% (Unspecified)
system.caches.L1Cache_Controller.IM_AD.FwdGetM::total           49                       (Unspecified)
system.caches.L1Cache_Controller.IM_AD.DataDirNoAcks |        9618     34.29%     34.29% |        5001     17.83%     52.11% |        6580     23.46%     75.57% |        6853     24.43%    100.00% (Unspecified)
system.caches.L1Cache_Controller.IM_AD.DataDirNoAcks::total        28052                       (Unspecified)
system.caches.L1Cache_Controller.IM_AD.DataOwner |        1052     31.53%     31.53% |         871     26.11%     57.64% |         596     17.87%     75.51% |         817     24.49%    100.00% (Unspecified)
system.caches.L1Cache_Controller.IM_AD.DataOwner::total         3336                       (Unspecified)
system.caches.L1Cache_Controller.IM_AD.InvAck |          34     28.33%     28.33% |          30     25.00%     53.33% |          22     18.33%     71.67% |          34     28.33%    100.00% (Unspecified)
system.caches.L1Cache_Controller.IM_AD.InvAck::total          120                       (Unspecified)
system.caches.L1Cache_Controller.S.Load  |       98834     30.39%     30.39% |       63858     19.63%     50.02% |       90196     27.73%     77.76% |       72346     22.24%    100.00% (Unspecified)
system.caches.L1Cache_Controller.S.Load::total       325234                       (Unspecified)
system.caches.L1Cache_Controller.S.Store |        9464     30.02%     30.02% |        6092     19.32%     49.34% |        7656     24.28%     73.63% |        8314     26.37%    100.00% (Unspecified)
system.caches.L1Cache_Controller.S.Store::total        31526                       (Unspecified)
system.caches.L1Cache_Controller.S.Replacement |       81552     29.99%     29.99% |       50694     18.64%     48.63% |       75293     27.69%     76.32% |       64380     23.68%    100.00% (Unspecified)
system.caches.L1Cache_Controller.S.Replacement::total       271919                       (Unspecified)
system.caches.L1Cache_Controller.S.Inv   |         123     21.89%     21.89% |         104     18.51%     40.39% |         190     33.81%     74.20% |         145     25.80%    100.00% (Unspecified)
system.caches.L1Cache_Controller.S.Inv::total          562                       (Unspecified)
system.caches.L1Cache_Controller.SM_AD.Inv |           1     50.00%     50.00% |           0      0.00%     50.00% |           1     50.00%    100.00% |           0      0.00%    100.00% (Unspecified)
system.caches.L1Cache_Controller.SM_AD.Inv::total            2                       (Unspecified)
system.caches.L1Cache_Controller.SM_AD.DataDirNoAcks |        9462     30.02%     30.02% |        6092     19.33%     49.34% |        7655     24.28%     73.63% |        8313     26.37%    100.00% (Unspecified)
system.caches.L1Cache_Controller.SM_AD.DataDirNoAcks::total        31522                       (Unspecified)
system.caches.L1Cache_Controller.SM_AD.DataDirAcks |           1     50.00%     50.00% |           0      0.00%     50.00% |           0      0.00%     50.00% |           1     50.00%    100.00% (Unspecified)
system.caches.L1Cache_Controller.SM_AD.DataDirAcks::total            2                       (Unspecified)
system.caches.L1Cache_Controller.SM_AD.InvAck |         169     38.24%     38.24% |          77     17.42%     55.66% |          76     17.19%     72.85% |         120     27.15%    100.00% (Unspecified)
system.caches.L1Cache_Controller.SM_AD.InvAck::total          442                       (Unspecified)
system.caches.L1Cache_Controller.SM_A.LastInvAck |           1     50.00%     50.00% |           0      0.00%     50.00% |           0      0.00%     50.00% |           1     50.00%    100.00% (Unspecified)
system.caches.L1Cache_Controller.SM_A.LastInvAck::total            2                       (Unspecified)
system.caches.L1Cache_Controller.M.Load  |       14996     23.29%     23.29% |       13633     21.17%     44.46% |       19169     29.77%     74.23% |       16592     25.77%    100.00% (Unspecified)
system.caches.L1Cache_Controller.M.Load::total        64390                       (Unspecified)
system.caches.L1Cache_Controller.M.Store |        3642     33.32%     33.32% |        1902     17.40%     50.71% |        2639     24.14%     74.85% |        2749     25.15%    100.00% (Unspecified)
system.caches.L1Cache_Controller.M.Store::total        10932                       (Unspecified)
system.caches.L1Cache_Controller.M.Replacement |       18900     31.77%     31.77% |       11058     18.59%     50.36% |       14455     24.30%     74.65% |       15080     25.35%    100.00% (Unspecified)
system.caches.L1Cache_Controller.M.Replacement::total        59493                       (Unspecified)
system.caches.L1Cache_Controller.M.FwdGetM |        3635     31.49%     31.49% |        2902     25.14%     56.64% |        2309     20.01%     76.64% |        2696     23.36%    100.00% (Unspecified)
system.caches.L1Cache_Controller.M.FwdGetM::total        11542                       (Unspecified)
system.caches.L1Cache_Controller.M_P.PutM |       34062     26.92%     26.92% |       25484     20.14%     47.06% |       34452     27.23%     74.29% |       32531     25.71%    100.00% (Unspecified)
system.caches.L1Cache_Controller.M_P.PutM::total       126529                       (Unspecified)
system.caches.L1Cache_Controller.M_P.Replacement |        4126     39.35%     39.35% |        1583     15.10%     54.45% |        2295     21.89%     76.34% |        2481     23.66%    100.00% (Unspecified)
system.caches.L1Cache_Controller.M_P.Replacement::total        10485                       (Unspecified)
system.caches.L1Cache_Controller.M_P.FwdGetM |        2990     31.93%     31.93% |        2433     25.98%     57.91% |        1831     19.55%     77.46% |        2111     22.54%    100.00% (Unspecified)
system.caches.L1Cache_Controller.M_P.FwdGetM::total         9365                       (Unspecified)
system.caches.L1Cache_Controller.MP_D.PutM |           3     42.86%     42.86% |           1     14.29%     57.14% |           1     14.29%     71.43% |           2     28.57%    100.00% (Unspecified)
system.caches.L1Cache_Controller.MP_D.PutM::total            7                       (Unspecified)
system.caches.L1Cache_Controller.MP_D.Replacement |        4129     39.33%     39.33% |        1584     15.09%     54.41% |        2299     21.90%     76.31% |        2487     23.69%    100.00% (Unspecified)
system.caches.L1Cache_Controller.MP_D.Replacement::total        10499                       (Unspecified)
system.caches.L1Cache_Controller.MP_D.FwdGetM |          28     24.56%     24.56% |          34     29.82%     54.39% |          20     17.54%     71.93% |          32     28.07%    100.00% (Unspecified)
system.caches.L1Cache_Controller.MP_D.FwdGetM::total          114                       (Unspecified)
system.caches.L1Cache_Controller.MP_D.WB_Data |        7113     35.85%     35.85% |        4015     20.23%     56.08% |        4125     20.79%     76.87% |        4590     23.13%    100.00% (Unspecified)
system.caches.L1Cache_Controller.MP_D.WB_Data::total        19843                       (Unspecified)
system.caches.L1Cache_Controller.MI_A.Replacement |       18934     31.74%     31.74% |       11095     18.60%     50.34% |       14509     24.32%     74.66% |       15118     25.34%    100.00% (Unspecified)
system.caches.L1Cache_Controller.MI_A.Replacement::total        59656                       (Unspecified)
system.caches.L1Cache_Controller.MI_A.FwdGetM |           1     25.00%     25.00% |           3     75.00%    100.00% |           0      0.00%    100.00% |           0      0.00%    100.00% (Unspecified)
system.caches.L1Cache_Controller.MI_A.FwdGetM::total            4                       (Unspecified)
system.caches.L1Cache_Controller.MI_A.PutAck |       18899     31.77%     31.77% |       11055     18.58%     50.35% |       14455     24.30%     74.65% |       15080     25.35%    100.00% (Unspecified)
system.caches.L1Cache_Controller.MI_A.PutAck::total        59489                       (Unspecified)
system.caches.L1Cache_Controller.SI_A.Replacement |       81735     29.98%     29.98% |       50873     18.66%     48.64% |       75458     27.68%     76.32% |       64567     23.68%    100.00% (Unspecified)
system.caches.L1Cache_Controller.SI_A.Replacement::total       272633                       (Unspecified)
system.caches.L1Cache_Controller.SI_A.PutAck |       81552     29.99%     29.99% |       50694     18.64%     48.63% |       75293     27.69%     76.32% |       64380     23.68%    100.00% (Unspecified)
system.caches.L1Cache_Controller.SI_A.PutAck::total       271919                       (Unspecified)
system.caches.L1Cache_Controller.II_A.PutAck |           1     25.00%     25.00% |           3     75.00%    100.00% |           0      0.00%    100.00% |           0      0.00%    100.00% (Unspecified)
system.caches.L1Cache_Controller.II_A.PutAck::total            4                       (Unspecified)
system.caches.Directory_Controller.GetS        312617      0.00%      0.00% (Unspecified)
system.caches.Directory_Controller.GetM         62912      0.00%      0.00% (Unspecified)
system.caches.Directory_Controller.PutSNotLast       121172      0.00%      0.00% (Unspecified)
system.caches.Directory_Controller.PutSLast       122582      0.00%      0.00% (Unspecified)
system.caches.Directory_Controller.PutSLastWT        28165      0.00%      0.00% (Unspecified)
system.caches.Directory_Controller.PutMOwner        46203      0.00%      0.00% (Unspecified)
system.caches.Directory_Controller.PutMOwnerWT        13286      0.00%      0.00% (Unspecified)
system.caches.Directory_Controller.PutMNonOwner            4      0.00%      0.00% (Unspecified)
system.caches.Directory_Controller.Sync          7949      0.00%      0.00% (Unspecified)
system.caches.Directory_Controller.MemData        35521      0.00%      0.00% (Unspecified)
system.caches.Directory_Controller.LastMemAck        49400      0.00%      0.00% (Unspecified)
system.caches.Directory_Controller.I.GetS        23742      0.00%      0.00% (Unspecified)
system.caches.Directory_Controller.I.GetM        11779      0.00%      0.00% (Unspecified)
system.caches.Directory_Controller.S.GetS       121815      0.00%      0.00% (Unspecified)
system.caches.Directory_Controller.S.GetM        31630      0.00%      0.00% (Unspecified)
system.caches.Directory_Controller.S.PutSNotLast       121172      0.00%      0.00% (Unspecified)
system.caches.Directory_Controller.S.PutSLast       122582      0.00%      0.00% (Unspecified)
system.caches.Directory_Controller.S.PutSLastWT        28165      0.00%      0.00% (Unspecified)
system.caches.Directory_Controller.M.GetS         8210      0.00%      0.00% (Unspecified)
system.caches.Directory_Controller.M.GetM         3336      0.00%      0.00% (Unspecified)
system.caches.Directory_Controller.M.PutMOwner        46203      0.00%      0.00% (Unspecified)
system.caches.Directory_Controller.M.PutMOwnerWT        13286      0.00%      0.00% (Unspecified)
system.caches.Directory_Controller.M.PutMNonOwner            4      0.00%      0.00% (Unspecified)
system.caches.Directory_Controller.LLCOnly.GetS       158850      0.00%      0.00% (Unspecified)
system.caches.Directory_Controller.LLCOnly.GetM        16167      0.00%      0.00% (Unspecified)
system.caches.Directory_Controller.LLCOnly.Sync         7949      0.00%      0.00% (Unspecified)
system.caches.Directory_Controller.LLCOnly_m.LastMemAck        36114      0.00%      0.00% (Unspecified)
system.caches.Directory_Controller.S_m.MemData        23742      0.00%      0.00% (Unspecified)
system.caches.Directory_Controller.M_m.MemData        11779      0.00%      0.00% (Unspecified)
system.caches.Directory_Controller.MI_m.LastMemAck        13286      0.00%      0.00% (Unspecified)
system.caches.RequestType.LD.latency_hist_seqr::bucket_size          128                       (Unspecified)
system.caches.RequestType.LD.latency_hist_seqr::max_bucket         1279                       (Unspecified)
system.caches.RequestType.LD.latency_hist_seqr::samples      3151264                       (Unspecified)
system.caches.RequestType.LD.latency_hist_seqr::mean     8.068346                       (Unspecified)
system.caches.RequestType.LD.latency_hist_seqr::gmean     1.783509                       (Unspecified)
system.caches.RequestType.LD.latency_hist_seqr::stdev    33.507412                       (Unspecified)
system.caches.RequestType.LD.latency_hist_seqr |     3113679     98.81%     98.81% |       20690      0.66%     99.46% |       11846      0.38%     99.84% |        3212      0.10%     99.94% |        1377      0.04%     99.99% |         355      0.01%    100.00% |          78      0.00%    100.00% |          27      0.00%    100.00% |           0      0.00%    100.00% |           0      0.00%    100.00% (Unspecified)
system.caches.RequestType.LD.latency_hist_seqr::total      3151264                       (Unspecified)
system.caches.RequestType.LD.hit_latency_hist_seqr::bucket_size            1                       (Unspecified)
system.caches.RequestType.LD.hit_latency_hist_seqr::max_bucket            9                       (Unspecified)
system.caches.RequestType.LD.hit_latency_hist_seqr::samples      2557870                       (Unspecified)
system.caches.RequestType.LD.hit_latency_hist_seqr::mean            1                       (Unspecified)
system.caches.RequestType.LD.hit_latency_hist_seqr::gmean            1                       (Unspecified)
system.caches.RequestType.LD.hit_latency_hist_seqr |           0      0.00%      0.00% |     2557870    100.00%    100.00% |           0      0.00%    100.00% |           0      0.00%    100.00% |           0      0.00%    100.00% |           0      0.00%    100.00% |           0      0.00%    100.00% |           0      0.00%    100.00% |           0      0.00%    100.00% |           0      0.00%    100.00% (Unspecified)
system.caches.RequestType.LD.hit_latency_hist_seqr::total      2557870                       (Unspecified)
system.caches.RequestType.LD.miss_latency_hist_seqr::bucket_size          128                       (Unspecified)
system.caches.RequestType.LD.miss_latency_hist_seqr::max_bucket         1279                       (Unspecified)
system.caches.RequestType.LD.miss_latency_hist_seqr::samples       593394                       (Unspecified)
system.caches.RequestType.LD.miss_latency_hist_seqr::mean    38.536987                       (Unspecified)
system.caches.RequestType.LD.miss_latency_hist_seqr::gmean    21.598181                       (Unspecified)
system.caches.RequestType.LD.miss_latency_hist_seqr::stdev    69.417121                       (Unspecified)
system.caches.RequestType.LD.miss_latency_hist_seqr |      555809     93.67%     93.67% |       20690      3.49%     97.15% |       11846      2.00%     99.15% |        3212      0.54%     99.69% |        1377      0.23%     99.92% |         355      0.06%     99.98% |          78      0.01%    100.00% |          27      0.00%    100.00% |           0      0.00%    100.00% |           0      0.00%    100.00% (Unspecified)
system.caches.RequestType.LD.miss_latency_hist_seqr::total       593394                       (Unspecified)
system.caches.RequestType.ST.latency_hist_seqr::bucket_size          128                       (Unspecified)
system.caches.RequestType.ST.latency_hist_seqr::max_bucket         1279                       (Unspecified)
system.caches.RequestType.ST.latency_hist_seqr::samples       776540                       (Unspecified)
system.caches.RequestType.ST.latency_hist_seqr::mean    10.648679                       (Unspecified)
system.caches.RequestType.ST.latency_hist_seqr::gmean     1.399396                       (Unspecified)
system.caches.RequestType.ST.latency_hist_seqr::stdev    63.822312                       (Unspecified)
system.caches.RequestType.ST.latency_hist_seqr |      760606     97.95%     97.95% |        6395      0.82%     98.77% |        4576      0.59%     99.36% |        1196      0.15%     99.51% |         977      0.13%     99.64% |         954      0.12%     99.76% |         918      0.12%     99.88% |         904      0.12%    100.00% |          14      0.00%    100.00% |           0      0.00%    100.00% (Unspecified)
system.caches.RequestType.ST.latency_hist_seqr::total       776540                       (Unspecified)
system.caches.RequestType.ST.hit_latency_hist_seqr::bucket_size            1                       (Unspecified)
system.caches.RequestType.ST.hit_latency_hist_seqr::max_bucket            9                       (Unspecified)
system.caches.RequestType.ST.hit_latency_hist_seqr::samples       709582                       (Unspecified)
system.caches.RequestType.ST.hit_latency_hist_seqr::mean            1                       (Unspecified)
system.caches.RequestType.ST.hit_latency_hist_seqr::gmean            1                       (Unspecified)
system.caches.RequestType.ST.hit_latency_hist_seqr |           0      0.00%      0.00% |      709582    100.00%    100.00% |           0      0.00%    100.00% |           0      0.00%    100.00% |           0      0.00%    100.00% |           0      0.00%    100.00% |           0      0.00%    100.00% |           0      0.00%    100.00% |           0      0.00%    100.00% |           0      0.00%    100.00% (Unspecified)
system.caches.RequestType.ST.hit_latency_hist_seqr::total       709582                       (Unspecified)
system.caches.RequestType.ST.miss_latency_hist_seqr::bucket_size          128                       (Unspecified)
system.caches.RequestType.ST.miss_latency_hist_seqr::max_bucket         1279                       (Unspecified)
system.caches.RequestType.ST.miss_latency_hist_seqr::samples        66958                       (Unspecified)
system.caches.RequestType.ST.miss_latency_hist_seqr::mean   112.899773                       (Unspecified)
system.caches.RequestType.ST.miss_latency_hist_seqr::gmean    49.264370                       (Unspecified)
system.caches.RequestType.ST.miss_latency_hist_seqr::stdev   189.204182                       (Unspecified)
system.caches.RequestType.ST.miss_latency_hist_seqr |       51024     76.20%     76.20% |        6395      9.55%     85.75% |        4576      6.83%     92.59% |        1196      1.79%     94.37% |         977      1.46%     95.83% |         954      1.42%     97.26% |         918      1.37%     98.63% |         904      1.35%     99.98% |          14      0.02%    100.00% |           0      0.00%    100.00% (Unspecified)
system.caches.RequestType.ST.miss_latency_hist_seqr::total        66958                       (Unspecified)
system.caches.RequestType.IFETCH.latency_hist_seqr::bucket_size          128                       (Unspecified)
system.caches.RequestType.IFETCH.latency_hist_seqr::max_bucket         1279                       (Unspecified)
system.caches.RequestType.IFETCH.latency_hist_seqr::samples     28298545                       (Unspecified)
system.caches.RequestType.IFETCH.latency_hist_seqr::mean     1.336327                       (Unspecified)
system.caches.RequestType.IFETCH.latency_hist_seqr::gmean     1.014804                       (Unspecified)
system.caches.RequestType.IFETCH.latency_hist_seqr::stdev     9.464588                       (Unspecified)
system.caches.RequestType.IFETCH.latency_hist_seqr |    28275934     99.92%     99.92% |       11576      0.04%     99.96% |        7412      0.03%     99.99% |        1873      0.01%     99.99% |        1034      0.00%    100.00% |         393      0.00%    100.00% |         215      0.00%    100.00% |         107      0.00%    100.00% |           1      0.00%    100.00% |           0      0.00%    100.00% (Unspecified)
system.caches.RequestType.IFETCH.latency_hist_seqr::total     28298545                       (Unspecified)
system.caches.RequestType.IFETCH.hit_latency_hist_seqr::bucket_size            1                       (Unspecified)
system.caches.RequestType.IFETCH.hit_latency_hist_seqr::max_bucket            9                       (Unspecified)
system.caches.RequestType.IFETCH.hit_latency_hist_seqr::samples     28189698                       (Unspecified)
system.caches.RequestType.IFETCH.hit_latency_hist_seqr::mean            1                       (Unspecified)
system.caches.RequestType.IFETCH.hit_latency_hist_seqr::gmean            1                       (Unspecified)
system.caches.RequestType.IFETCH.hit_latency_hist_seqr |           0      0.00%      0.00% |    28189698    100.00%    100.00% |           0      0.00%    100.00% |           0      0.00%    100.00% |           0      0.00%    100.00% |           0      0.00%    100.00% |           0      0.00%    100.00% |           0      0.00%    100.00% |           0      0.00%    100.00% |           0      0.00%    100.00% (Unspecified)
system.caches.RequestType.IFETCH.hit_latency_hist_seqr::total     28189698                       (Unspecified)
system.caches.RequestType.IFETCH.miss_latency_hist_seqr::bucket_size          128                       (Unspecified)
system.caches.RequestType.IFETCH.miss_latency_hist_seqr::max_bucket         1279                       (Unspecified)
system.caches.RequestType.IFETCH.miss_latency_hist_seqr::samples       108847                       (Unspecified)
system.caches.RequestType.IFETCH.miss_latency_hist_seqr::mean    88.439948                       (Unspecified)
system.caches.RequestType.IFETCH.miss_latency_hist_seqr::gmean    45.632267                       (Unspecified)
system.caches.RequestType.IFETCH.miss_latency_hist_seqr::stdev   125.191132                       (Unspecified)
system.caches.RequestType.IFETCH.miss_latency_hist_seqr |       86236     79.23%     79.23% |       11576     10.64%     89.86% |        7412      6.81%     96.67% |        1873      1.72%     98.39% |        1034      0.95%     99.34% |         393      0.36%     99.70% |         215      0.20%     99.90% |         107      0.10%    100.00% |           1      0.00%    100.00% |           0      0.00%    100.00% (Unspecified)
system.caches.RequestType.IFETCH.miss_latency_hist_seqr::total       108847                       (Unspecified)
system.caches.RequestType.RMW_Read.latency_hist_seqr::bucket_size           64                       (Unspecified)
system.caches.RequestType.RMW_Read.latency_hist_seqr::max_bucket          639                       (Unspecified)
system.caches.RequestType.RMW_Read.latency_hist_seqr::samples        21348                       (Unspecified)
system.caches.RequestType.RMW_Read.latency_hist_seqr::mean     7.093405                       (Unspecified)
system.caches.RequestType.RMW_Read.latency_hist_seqr::gmean     1.411176                       (Unspecified)
system.caches.RequestType.RMW_Read.latency_hist_seqr::stdev    31.760136                       (Unspecified)
system.caches.RequestType.RMW_Read.latency_hist_seqr |       20965     98.21%     98.21% |          42      0.20%     98.40% |         125      0.59%     98.99% |          99      0.46%     99.45% |          68      0.32%     99.77% |          34      0.16%     99.93% |           6      0.03%     99.96% |           7      0.03%     99.99% |           1      0.00%    100.00% |           1      0.00%    100.00% (Unspecified)
system.caches.RequestType.RMW_Read.latency_hist_seqr::total        21348                       (Unspecified)
system.caches.RequestType.RMW_Read.hit_latency_hist_seqr::bucket_size            1                       (Unspecified)
system.caches.RequestType.RMW_Read.hit_latency_hist_seqr::max_bucket            9                       (Unspecified)
system.caches.RequestType.RMW_Read.hit_latency_hist_seqr::samples        19372                       (Unspecified)
system.caches.RequestType.RMW_Read.hit_latency_hist_seqr::mean            1                       (Unspecified)
system.caches.RequestType.RMW_Read.hit_latency_hist_seqr::gmean            1                       (Unspecified)
system.caches.RequestType.RMW_Read.hit_latency_hist_seqr |           0      0.00%      0.00% |       19372    100.00%    100.00% |           0      0.00%    100.00% |           0      0.00%    100.00% |           0      0.00%    100.00% |           0      0.00%    100.00% |           0      0.00%    100.00% |           0      0.00%    100.00% |           0      0.00%    100.00% |           0      0.00%    100.00% (Unspecified)
system.caches.RequestType.RMW_Read.hit_latency_hist_seqr::total        19372                       (Unspecified)
system.caches.RequestType.RMW_Read.miss_latency_hist_seqr::bucket_size           64                       (Unspecified)
system.caches.RequestType.RMW_Read.miss_latency_hist_seqr::max_bucket          639                       (Unspecified)
system.caches.RequestType.RMW_Read.miss_latency_hist_seqr::samples         1976                       (Unspecified)
system.caches.RequestType.RMW_Read.miss_latency_hist_seqr::mean    66.830972                       (Unspecified)
system.caches.RequestType.RMW_Read.miss_latency_hist_seqr::gmean    41.306788                       (Unspecified)
system.caches.RequestType.RMW_Read.miss_latency_hist_seqr::stdev    83.475364                       (Unspecified)
system.caches.RequestType.RMW_Read.miss_latency_hist_seqr |        1593     80.62%     80.62% |          42      2.13%     82.74% |         125      6.33%     89.07% |          99      5.01%     94.08% |          68      3.44%     97.52% |          34      1.72%     99.24% |           6      0.30%     99.54% |           7      0.35%     99.90% |           1      0.05%     99.95% |           1      0.05%    100.00% (Unspecified)
system.caches.RequestType.RMW_Read.miss_latency_hist_seqr::total         1976                       (Unspecified)
system.caches.RequestType.Locked_RMW_Read.latency_hist_seqr::bucket_size          128                       (Unspecified)
system.caches.RequestType.Locked_RMW_Read.latency_hist_seqr::max_bucket         1279                       (Unspecified)
system.caches.RequestType.Locked_RMW_Read.latency_hist_seqr::samples        20002                       (Unspecified)
system.caches.RequestType.Locked_RMW_Read.latency_hist_seqr::mean    14.473553                       (Unspecified)
system.caches.RequestType.Locked_RMW_Read.latency_hist_seqr::gmean     2.441504                       (Unspecified)
system.caches.RequestType.Locked_RMW_Read.latency_hist_seqr::stdev    44.207003                       (Unspecified)
system.caches.RequestType.Locked_RMW_Read.latency_hist_seqr |       19529     97.64%     97.64% |         287      1.43%     99.07% |         126      0.63%     99.70% |          46      0.23%     99.93% |          11      0.05%     99.99% |           3      0.01%    100.00% |           0      0.00%    100.00% |           0      0.00%    100.00% |           0      0.00%    100.00% |           0      0.00%    100.00% (Unspecified)
system.caches.RequestType.Locked_RMW_Read.latency_hist_seqr::total        20002                       (Unspecified)
system.caches.RequestType.Locked_RMW_Read.hit_latency_hist_seqr::bucket_size            1                       (Unspecified)
system.caches.RequestType.Locked_RMW_Read.hit_latency_hist_seqr::max_bucket            9                       (Unspecified)
system.caches.RequestType.Locked_RMW_Read.hit_latency_hist_seqr::samples        15092                       (Unspecified)
system.caches.RequestType.Locked_RMW_Read.hit_latency_hist_seqr::mean            1                       (Unspecified)
system.caches.RequestType.Locked_RMW_Read.hit_latency_hist_seqr::gmean            1                       (Unspecified)
system.caches.RequestType.Locked_RMW_Read.hit_latency_hist_seqr |           0      0.00%      0.00% |       15092    100.00%    100.00% |           0      0.00%    100.00% |           0      0.00%    100.00% |           0      0.00%    100.00% |           0      0.00%    100.00% |           0      0.00%    100.00% |           0      0.00%    100.00% |           0      0.00%    100.00% |           0      0.00%    100.00% (Unspecified)
system.caches.RequestType.Locked_RMW_Read.hit_latency_hist_seqr::total        15092                       (Unspecified)
system.caches.RequestType.Locked_RMW_Read.miss_latency_hist_seqr::bucket_size          128                       (Unspecified)
system.caches.RequestType.Locked_RMW_Read.miss_latency_hist_seqr::max_bucket         1279                       (Unspecified)
system.caches.RequestType.Locked_RMW_Read.miss_latency_hist_seqr::samples         4910                       (Unspecified)
system.caches.RequestType.Locked_RMW_Read.miss_latency_hist_seqr::mean    55.887576                       (Unspecified)
system.caches.RequestType.Locked_RMW_Read.miss_latency_hist_seqr::gmean    37.949900                       (Unspecified)
system.caches.RequestType.Locked_RMW_Read.miss_latency_hist_seqr::stdev    75.423892                       (Unspecified)
system.caches.RequestType.Locked_RMW_Read.miss_latency_hist_seqr |        4437     90.37%     90.37% |         287      5.85%     96.21% |         126      2.57%     98.78% |          46      0.94%     99.71% |          11      0.22%     99.94% |           3      0.06%    100.00% |           0      0.00%    100.00% |           0      0.00%    100.00% |           0      0.00%    100.00% |           0      0.00%    100.00% (Unspecified)
system.caches.RequestType.Locked_RMW_Read.miss_latency_hist_seqr::total         4910                       (Unspecified)
system.caches.RequestType.Locked_RMW_Write.latency_hist_seqr::bucket_size            1                       (Unspecified)
system.caches.RequestType.Locked_RMW_Write.latency_hist_seqr::max_bucket            9                       (Unspecified)
system.caches.RequestType.Locked_RMW_Write.latency_hist_seqr::samples        20002                       (Unspecified)
system.caches.RequestType.Locked_RMW_Write.latency_hist_seqr::mean            1                       (Unspecified)
system.caches.RequestType.Locked_RMW_Write.latency_hist_seqr::gmean            1                       (Unspecified)
system.caches.RequestType.Locked_RMW_Write.latency_hist_seqr |           0      0.00%      0.00% |       20002    100.00%    100.00% |           0      0.00%    100.00% |           0      0.00%    100.00% |           0      0.00%    100.00% |           0      0.00%    100.00% |           0      0.00%    100.00% |           0      0.00%    100.00% |           0      0.00%    100.00% |           0      0.00%    100.00% (Unspecified)
system.caches.RequestType.Locked_RMW_Write.latency_hist_seqr::total        20002                       (Unspecified)
system.caches.RequestType.Locked_RMW_Write.hit_latency_hist_seqr::bucket_size            1                       (Unspecified)
system.caches.RequestType.Locked_RMW_Write.hit_latency_hist_seqr::max_bucket            9                       (Unspecified)
system.caches.RequestType.Locked_RMW_Write.hit_latency_hist_seqr::samples        20002                       (Unspecified)
system.caches.RequestType.Locked_RMW_Write.hit_latency_hist_seqr::mean            1                       (Unspecified)
system.caches.RequestType.Locked_RMW_Write.hit_latency_hist_seqr::gmean            1                       (Unspecified)
system.caches.RequestType.Locked_RMW_Write.hit_latency_hist_seqr |           0      0.00%      0.00% |       20002    100.00%    100.00% |           0      0.00%    100.00% |           0      0.00%    100.00% |           0      0.00%    100.00% |           0      0.00%    100.00% |           0      0.00%    100.00% |           0      0.00%    100.00% |           0      0.00%    100.00% |           0      0.00%    100.00% (Unspecified)
system.caches.RequestType.Locked_RMW_Write.hit_latency_hist_seqr::total        20002                       (Unspecified)
system.caches.controllers0.DCache.m_demand_hits            0                       # Number of cache demand hits (Unspecified)
system.caches.controllers0.DCache.m_demand_misses            0                       # Number of cache demand misses (Unspecified)
system.caches.controllers0.DCache.m_demand_accesses            0                       # Number of cache demand accesses (Unspecified)
system.caches.controllers0.ICache.m_demand_hits            0                       # Number of cache demand hits (Unspecified)
system.caches.controllers0.ICache.m_demand_misses            0                       # Number of cache demand misses (Unspecified)
system.caches.controllers0.ICache.m_demand_accesses            0                       # Number of cache demand accesses (Unspecified)
system.caches.controllers0.forwardFromL1.m_buf_msgs     8.014170                       # Average number of messages in buffer (Unspecified)
system.caches.controllers0.forwardFromL1.m_stall_time  4999.656962                       # Average number of cycles messages are stalled in this MB (Unspecified)
system.caches.controllers0.mandatoryQueue.m_buf_msgs     0.219265                       # Average number of messages in buffer (Unspecified)
system.caches.controllers0.mandatoryQueue.m_stall_time   999.999975                       # Average number of cycles messages are stalled in this MB (Unspecified)
system.caches.controllers0.power_state.pwrStateResidencyTicks::UNDEFINED  40456191000                       # Cumulative time (in ticks) in various power states (Tick)
system.caches.controllers0.requestToL1.m_buf_msgs     0.006559                       # Average number of messages in buffer (Unspecified)
system.caches.controllers0.requestToL1.m_stall_time   999.999951                       # Average number of cycles messages are stalled in this MB (Unspecified)
system.caches.controllers0.responseFromL1.m_buf_msgs     0.005717                       # Average number of messages in buffer (Unspecified)
system.caches.controllers0.responseFromL1.m_stall_time  4999.983810                       # Average number of cycles messages are stalled in this MB (Unspecified)
system.caches.controllers0.responseToL1.m_buf_msgs     0.000176                       # Average number of messages in buffer (Unspecified)
system.caches.controllers0.responseToL1.m_stall_time   999.608762                       # Average number of cycles messages are stalled in this MB (Unspecified)
system.caches.controllers0.xyzStatsObject.power_state.pwrStateResidencyTicks::UNDEFINED  40456191000                       # Cumulative time (in ticks) in various power states (Tick)
system.caches.controllers1.DCache.m_demand_hits            0                       # Number of cache demand hits (Unspecified)
system.caches.controllers1.DCache.m_demand_misses            0                       # Number of cache demand misses (Unspecified)
system.caches.controllers1.DCache.m_demand_accesses            0                       # Number of cache demand accesses (Unspecified)
system.caches.controllers1.ICache.m_demand_hits            0                       # Number of cache demand hits (Unspecified)
system.caches.controllers1.ICache.m_demand_misses            0                       # Number of cache demand misses (Unspecified)
system.caches.controllers1.ICache.m_demand_accesses            0                       # Number of cache demand accesses (Unspecified)
system.caches.controllers1.forwardFromL1.m_buf_msgs     3.699426                       # Average number of messages in buffer (Unspecified)
system.caches.controllers1.forwardFromL1.m_stall_time  4041.336244                       # Average number of cycles messages are stalled in this MB (Unspecified)
system.caches.controllers1.forwardFromL1.m_stall_count            1                       # Number of times messages were stalled (Unspecified)
system.caches.controllers1.mandatoryQueue.m_buf_msgs     0.164668                       # Average number of messages in buffer (Unspecified)
system.caches.controllers1.mandatoryQueue.m_stall_time   807.782646                       # Average number of cycles messages are stalled in this MB (Unspecified)
system.caches.controllers1.power_state.pwrStateResidencyTicks::UNDEFINED  40456191000                       # Cumulative time (in ticks) in various power states (Tick)
system.caches.controllers1.requestToL1.m_buf_msgs     0.004347                       # Average number of messages in buffer (Unspecified)
system.caches.controllers1.requestToL1.m_stall_time   807.782621                       # Average number of cycles messages are stalled in this MB (Unspecified)
system.caches.controllers1.responseFromL1.m_buf_msgs     0.003717                       # Average number of messages in buffer (Unspecified)
system.caches.controllers1.responseFromL1.m_stall_time  4038.909768                       # Average number of cycles messages are stalled in this MB (Unspecified)
system.caches.controllers1.responseToL1.m_buf_msgs     0.000099                       # Average number of messages in buffer (Unspecified)
system.caches.controllers1.responseToL1.m_stall_time   806.946952                       # Average number of cycles messages are stalled in this MB (Unspecified)
system.caches.controllers1.xyzStatsObject.power_state.pwrStateResidencyTicks::UNDEFINED  40456191000                       # Cumulative time (in ticks) in various power states (Tick)
system.caches.controllers2.DCache.m_demand_hits            0                       # Number of cache demand hits (Unspecified)
system.caches.controllers2.DCache.m_demand_misses            0                       # Number of cache demand misses (Unspecified)
system.caches.controllers2.DCache.m_demand_accesses            0                       # Number of cache demand accesses (Unspecified)
system.caches.controllers2.ICache.m_demand_hits            0                       # Number of cache demand hits (Unspecified)
system.caches.controllers2.ICache.m_demand_misses            0                       # Number of cache demand misses (Unspecified)
system.caches.controllers2.ICache.m_demand_accesses            0                       # Number of cache demand accesses (Unspecified)
system.caches.controllers2.forwardFromL1.m_buf_msgs     4.245104                       # Average number of messages in buffer (Unspecified)
system.caches.controllers2.forwardFromL1.m_stall_time  4032.141904                       # Average number of cycles messages are stalled in this MB (Unspecified)
system.caches.controllers2.mandatoryQueue.m_buf_msgs     0.204857                       # Average number of messages in buffer (Unspecified)
system.caches.controllers2.mandatoryQueue.m_stall_time   806.459857                       # Average number of cycles messages are stalled in this MB (Unspecified)
system.caches.controllers2.power_state.pwrStateResidencyTicks::UNDEFINED  40456191000                       # Cumulative time (in ticks) in various power states (Tick)
system.caches.controllers2.requestToL1.m_buf_msgs     0.006093                       # Average number of messages in buffer (Unspecified)
system.caches.controllers2.requestToL1.m_stall_time   806.459832                       # Average number of cycles messages are stalled in this MB (Unspecified)
system.caches.controllers2.responseFromL1.m_buf_msgs     0.005241                       # Average number of messages in buffer (Unspecified)
system.caches.controllers2.responseFromL1.m_stall_time  4032.283217                       # Average number of cycles messages are stalled in this MB (Unspecified)
system.caches.controllers2.responseToL1.m_buf_msgs     0.000102                       # Average number of messages in buffer (Unspecified)
system.caches.controllers2.responseToL1.m_stall_time   806.146530                       # Average number of cycles messages are stalled in this MB (Unspecified)
system.caches.controllers2.xyzStatsObject.power_state.pwrStateResidencyTicks::UNDEFINED  40456191000                       # Cumulative time (in ticks) in various power states (Tick)
system.caches.controllers3.DCache.m_demand_hits            0                       # Number of cache demand hits (Unspecified)
system.caches.controllers3.DCache.m_demand_misses            0                       # Number of cache demand misses (Unspecified)
system.caches.controllers3.DCache.m_demand_accesses            0                       # Number of cache demand accesses (Unspecified)
system.caches.controllers3.ICache.m_demand_hits            0                       # Number of cache demand hits (Unspecified)
system.caches.controllers3.ICache.m_demand_misses            0                       # Number of cache demand misses (Unspecified)
system.caches.controllers3.ICache.m_demand_accesses            0                       # Number of cache demand accesses (Unspecified)
system.caches.controllers3.forwardFromL1.m_buf_msgs     3.693411                       # Average number of messages in buffer (Unspecified)
system.caches.controllers3.forwardFromL1.m_stall_time  4024.126344                       # Average number of cycles messages are stalled in this MB (Unspecified)
system.caches.controllers3.mandatoryQueue.m_buf_msgs     0.209301                       # Average number of messages in buffer (Unspecified)
system.caches.controllers3.mandatoryQueue.m_stall_time   805.038715                       # Average number of cycles messages are stalled in this MB (Unspecified)
system.caches.controllers3.power_state.pwrStateResidencyTicks::UNDEFINED  40456191000                       # Cumulative time (in ticks) in various power states (Tick)
system.caches.controllers3.requestToL1.m_buf_msgs     0.005313                       # Average number of messages in buffer (Unspecified)
system.caches.controllers3.requestToL1.m_stall_time   805.038690                       # Average number of cycles messages are stalled in this MB (Unspecified)
system.caches.controllers3.responseFromL1.m_buf_msgs     0.004509                       # Average number of messages in buffer (Unspecified)
system.caches.controllers3.responseFromL1.m_stall_time  4025.147474                       # Average number of cycles messages are stalled in this MB (Unspecified)
system.caches.controllers3.responseToL1.m_buf_msgs     0.000113                       # Average number of messages in buffer (Unspecified)
system.caches.controllers3.responseToL1.m_stall_time   804.256436                       # Average number of cycles messages are stalled in this MB (Unspecified)
system.caches.controllers3.xyzStatsObject.power_state.pwrStateResidencyTicks::UNDEFINED  40456191000                       # Cumulative time (in ticks) in various power states (Tick)
system.caches.controllers4.cacheMemory.m_demand_hits            0                       # Number of cache demand hits (Unspecified)
system.caches.controllers4.cacheMemory.m_demand_misses            0                       # Number of cache demand misses (Unspecified)
system.caches.controllers4.cacheMemory.m_demand_accesses            0                       # Number of cache demand accesses (Unspecified)
system.caches.controllers4.forwardFromDir.m_buf_msgs     0.003325                       # Average number of messages in buffer (Unspecified)
system.caches.controllers4.forwardFromDir.m_stall_time  5849.163778                       # Average number of cycles messages are stalled in this MB (Unspecified)
system.caches.controllers4.forwardFromDir.m_stall_count         3050                       # Number of times messages were stalled (Unspecified)
system.caches.controllers4.forwardToL0.m_buf_msgs     0.002195                       # Average number of messages in buffer (Unspecified)
system.caches.controllers4.forwardToL0.m_stall_time   999.777908                       # Average number of cycles messages are stalled in this MB (Unspecified)
system.caches.controllers4.power_state.pwrStateResidencyTicks::UNDEFINED  40456191000                       # Cumulative time (in ticks) in various power states (Tick)
system.caches.controllers4.requestFromL0.m_buf_msgs     0.056475                       # Average number of messages in buffer (Unspecified)
system.caches.controllers4.requestFromL0.m_stall_time 19254.450079                       # Average number of cycles messages are stalled in this MB (Unspecified)
system.caches.controllers4.requestFromL0.m_stall_count       104798                       # Number of times messages were stalled (Unspecified)
system.caches.controllers4.requestToDir.m_buf_msgs     0.005296                       # Average number of messages in buffer (Unspecified)
system.caches.controllers4.requestToDir.m_stall_time   999.999827                       # Average number of cycles messages are stalled in this MB (Unspecified)
system.caches.controllers4.responseFromDirOrSibling.m_buf_msgs     0.002818                       # Average number of messages in buffer (Unspecified)
system.caches.controllers4.responseFromDirOrSibling.m_stall_time 12762.686556                       # Average number of cycles messages are stalled in this MB (Unspecified)
system.caches.controllers4.responseFromL0.m_buf_msgs     0.000176                       # Average number of messages in buffer (Unspecified)
system.caches.controllers4.responseFromL0.m_stall_time  4998.079478                       # Average number of cycles messages are stalled in this MB (Unspecified)
system.caches.controllers4.responseToDirOrSibling.m_buf_msgs     0.000093                       # Average number of messages in buffer (Unspecified)
system.caches.controllers4.responseToDirOrSibling.m_stall_time   807.778987                       # Average number of cycles messages are stalled in this MB (Unspecified)
system.caches.controllers4.responseToL0.m_buf_msgs     0.005717                       # Average number of messages in buffer (Unspecified)
system.caches.controllers4.responseToL0.m_stall_time   999.996861                       # Average number of cycles messages are stalled in this MB (Unspecified)
system.caches.controllers4.xyzStatsObject.power_state.pwrStateResidencyTicks::UNDEFINED  40456191000                       # Cumulative time (in ticks) in various power states (Tick)
system.caches.controllers5.cacheMemory.m_demand_hits            0                       # Number of cache demand hits (Unspecified)
system.caches.controllers5.cacheMemory.m_demand_misses            0                       # Number of cache demand misses (Unspecified)
system.caches.controllers5.cacheMemory.m_demand_accesses            0                       # Number of cache demand accesses (Unspecified)
system.caches.controllers5.forwardFromDir.m_buf_msgs     0.002210                       # Average number of messages in buffer (Unspecified)
system.caches.controllers5.forwardFromDir.m_stall_time  5268.027680                       # Average number of cycles messages are stalled in this MB (Unspecified)
system.caches.controllers5.forwardFromDir.m_stall_count         2491                       # Number of times messages were stalled (Unspecified)
system.caches.controllers5.forwardToL0.m_buf_msgs     0.001355                       # Average number of messages in buffer (Unspecified)
system.caches.controllers5.forwardToL0.m_stall_time   807.524490                       # Average number of cycles messages are stalled in this MB (Unspecified)
system.caches.controllers5.power_state.pwrStateResidencyTicks::UNDEFINED  40456191000                       # Cumulative time (in ticks) in various power states (Tick)
system.caches.controllers5.requestFromL0.m_buf_msgs     0.045192                       # Average number of messages in buffer (Unspecified)
system.caches.controllers5.requestFromL0.m_stall_time 20683.325405                       # Average number of cycles messages are stalled in this MB (Unspecified)
system.caches.controllers5.requestFromL0.m_stall_count        63552                       # Number of times messages were stalled (Unspecified)
system.caches.controllers5.requestToDir.m_buf_msgs     0.003281                       # Average number of messages in buffer (Unspecified)
system.caches.controllers5.requestToDir.m_stall_time   807.782497                       # Average number of cycles messages are stalled in this MB (Unspecified)
system.caches.controllers5.responseFromDirOrSibling.m_buf_msgs     0.001757                       # Average number of messages in buffer (Unspecified)
system.caches.controllers5.responseFromDirOrSibling.m_stall_time 10234.654370                       # Average number of cycles messages are stalled in this MB (Unspecified)
system.caches.controllers5.responseFromL0.m_buf_msgs     0.000099                       # Average number of messages in buffer (Unspecified)
system.caches.controllers5.responseFromL0.m_stall_time  4034.779547                       # Average number of cycles messages are stalled in this MB (Unspecified)
system.caches.controllers5.responseToDirOrSibling.m_buf_msgs     0.000074                       # Average number of messages in buffer (Unspecified)
system.caches.controllers5.responseToDirOrSibling.m_stall_time   806.354385                       # Average number of cycles messages are stalled in this MB (Unspecified)
system.caches.controllers5.responseToL0.m_buf_msgs     0.003717                       # Average number of messages in buffer (Unspecified)
system.caches.controllers5.responseToL0.m_stall_time   807.782052                       # Average number of cycles messages are stalled in this MB (Unspecified)
system.caches.controllers5.xyzStatsObject.power_state.pwrStateResidencyTicks::UNDEFINED  40456191000                       # Cumulative time (in ticks) in various power states (Tick)
system.caches.controllers6.cacheMemory.m_demand_hits            0                       # Number of cache demand hits (Unspecified)
system.caches.controllers6.cacheMemory.m_demand_misses            0                       # Number of cache demand misses (Unspecified)
system.caches.controllers6.cacheMemory.m_demand_accesses            0                       # Number of cache demand accesses (Unspecified)
system.caches.controllers6.forwardFromDir.m_buf_msgs     0.002738                       # Average number of messages in buffer (Unspecified)
system.caches.controllers6.forwardFromDir.m_stall_time  5076.701808                       # Average number of cycles messages are stalled in this MB (Unspecified)
system.caches.controllers6.forwardFromDir.m_stall_count         1868                       # Number of times messages were stalled (Unspecified)
system.caches.controllers6.forwardToL0.m_buf_msgs     0.001968                       # Average number of messages in buffer (Unspecified)
system.caches.controllers6.forwardToL0.m_stall_time   806.240508                       # Average number of cycles messages are stalled in this MB (Unspecified)
system.caches.controllers6.power_state.pwrStateResidencyTicks::UNDEFINED  40456191000                       # Cumulative time (in ticks) in various power states (Tick)
system.caches.controllers6.requestFromL0.m_buf_msgs     0.055021                       # Average number of messages in buffer (Unspecified)
system.caches.controllers6.requestFromL0.m_stall_time 16872.657982                       # Average number of cycles messages are stalled in this MB (Unspecified)
system.caches.controllers6.requestFromL0.m_stall_count        92266                       # Number of times messages were stalled (Unspecified)
system.caches.controllers6.requestToDir.m_buf_msgs     0.004691                       # Average number of messages in buffer (Unspecified)
system.caches.controllers6.requestToDir.m_stall_time   806.459708                       # Average number of cycles messages are stalled in this MB (Unspecified)
system.caches.controllers6.responseFromDirOrSibling.m_buf_msgs     0.002475                       # Average number of messages in buffer (Unspecified)
system.caches.controllers6.responseFromDirOrSibling.m_stall_time 10237.448726                       # Average number of cycles messages are stalled in this MB (Unspecified)
system.caches.controllers6.responseFromL0.m_buf_msgs     0.000102                       # Average number of messages in buffer (Unspecified)
system.caches.controllers6.responseFromL0.m_stall_time  4030.778355                       # Average number of cycles messages are stalled in this MB (Unspecified)
system.caches.controllers6.responseToDirOrSibling.m_buf_msgs     0.000062                       # Average number of messages in buffer (Unspecified)
system.caches.controllers6.responseToDirOrSibling.m_stall_time   806.146407                       # Average number of cycles messages are stalled in this MB (Unspecified)
system.caches.controllers6.responseToL0.m_buf_msgs     0.005241                       # Average number of messages in buffer (Unspecified)
system.caches.controllers6.responseToL0.m_stall_time   806.456742                       # Average number of cycles messages are stalled in this MB (Unspecified)
system.caches.controllers6.xyzStatsObject.power_state.pwrStateResidencyTicks::UNDEFINED  40456191000                       # Cumulative time (in ticks) in various power states (Tick)
system.caches.controllers7.cacheMemory.m_demand_hits            0                       # Number of cache demand hits (Unspecified)
system.caches.controllers7.cacheMemory.m_demand_misses            0                       # Number of cache demand misses (Unspecified)
system.caches.controllers7.cacheMemory.m_demand_accesses            0                       # Number of cache demand accesses (Unspecified)
system.caches.controllers7.forwardFromDir.m_buf_msgs     0.002563                       # Average number of messages in buffer (Unspecified)
system.caches.controllers7.forwardFromDir.m_stall_time  4714.150475                       # Average number of cycles messages are stalled in this MB (Unspecified)
system.caches.controllers7.forwardFromDir.m_stall_count         2169                       # Number of times messages were stalled (Unspecified)
system.caches.controllers7.forwardToL0.m_buf_msgs     0.001708                       # Average number of messages in buffer (Unspecified)
system.caches.controllers7.forwardToL0.m_stall_time   804.737846                       # Average number of cycles messages are stalled in this MB (Unspecified)
system.caches.controllers7.power_state.pwrStateResidencyTicks::UNDEFINED  40456191000                       # Cumulative time (in ticks) in various power states (Tick)
system.caches.controllers7.requestFromL0.m_buf_msgs     0.051894                       # Average number of messages in buffer (Unspecified)
system.caches.controllers7.requestFromL0.m_stall_time 18402.835255                       # Average number of cycles messages are stalled in this MB (Unspecified)
system.caches.controllers7.requestFromL0.m_stall_count        82172                       # Number of times messages were stalled (Unspecified)
system.caches.controllers7.requestToDir.m_buf_msgs     0.004207                       # Average number of messages in buffer (Unspecified)
system.caches.controllers7.requestToDir.m_stall_time   805.038566                       # Average number of cycles messages are stalled in this MB (Unspecified)
system.caches.controllers7.responseFromDirOrSibling.m_buf_msgs     0.002247                       # Average number of messages in buffer (Unspecified)
system.caches.controllers7.responseFromDirOrSibling.m_stall_time 10300.092834                       # Average number of cycles messages are stalled in this MB (Unspecified)
system.caches.controllers7.responseFromL0.m_buf_msgs     0.000113                       # Average number of messages in buffer (Unspecified)
system.caches.controllers7.responseFromL0.m_stall_time  4021.343260                       # Average number of cycles messages are stalled in this MB (Unspecified)
system.caches.controllers7.responseToDirOrSibling.m_buf_msgs     0.000070                       # Average number of messages in buffer (Unspecified)
system.caches.controllers7.responseToDirOrSibling.m_stall_time   803.841469                       # Average number of cycles messages are stalled in this MB (Unspecified)
system.caches.controllers7.responseToL0.m_buf_msgs     0.004509                       # Average number of messages in buffer (Unspecified)
system.caches.controllers7.responseToL0.m_stall_time   805.029594                       # Average number of cycles messages are stalled in this MB (Unspecified)
system.caches.controllers7.xyzStatsObject.power_state.pwrStateResidencyTicks::UNDEFINED  40456191000                       # Cumulative time (in ticks) in various power states (Tick)
system.caches.controllers8.cacheMemory.m_demand_hits            0                       # Number of cache demand hits (Unspecified)
system.caches.controllers8.cacheMemory.m_demand_misses            0                       # Number of cache demand misses (Unspecified)
system.caches.controllers8.cacheMemory.m_demand_accesses            0                       # Number of cache demand accesses (Unspecified)
system.caches.controllers8.forwardToCache.m_buf_msgs     0.009259                       # Average number of messages in buffer (Unspecified)
system.caches.controllers8.forwardToCache.m_stall_time   999.899595                       # Average number of cycles messages are stalled in this MB (Unspecified)
system.caches.controllers8.power_state.pwrStateResidencyTicks::UNDEFINED  40456191000                       # Cumulative time (in ticks) in various power states (Tick)
system.caches.controllers8.requestFromCache.m_not_avail_count       118986                       # Number of times this buffer did not have N slots available (Unspecified)
system.caches.controllers8.requestFromCache.m_buf_msgs     0.017474                       # Average number of messages in buffer (Unspecified)
system.caches.controllers8.requestFromCache.m_stall_time 42806.764212                       # Average number of cycles messages are stalled in this MB (Unspecified)
system.caches.controllers8.requestFromCache.m_occupancy     0.017474                       # Average occupancy of buffer capacity (Unspecified)
system.caches.controllers8.requestToMemory.m_buf_msgs     0.002099                       # Average number of messages in buffer (Unspecified)
system.caches.controllers8.requestToMemory.m_stall_time   999.999703                       # Average number of cycles messages are stalled in this MB (Unspecified)
system.caches.controllers8.responseFromMemory.m_buf_msgs     0.002099                       # Average number of messages in buffer (Unspecified)
system.caches.controllers8.responseFromMemory.m_stall_time   999.997207                       # Average number of cycles messages are stalled in this MB (Unspecified)
system.caches.controllers8.responseToCache.m_buf_msgs     0.080973                       # Average number of messages in buffer (Unspecified)
system.caches.controllers8.responseToCache.m_stall_time  8999.972860                       # Average number of cycles messages are stalled in this MB (Unspecified)
system.caches.controllers8.xyzCacheMemory.m_demand_hits            0                       # Number of cache demand hits (Unspecified)
system.caches.controllers8.xyzCacheMemory.m_demand_misses            0                       # Number of cache demand misses (Unspecified)
system.caches.controllers8.xyzCacheMemory.m_demand_accesses            0                       # Number of cache demand accesses (Unspecified)
system.caches.controllers8.xyzStatsObject.power_state.pwrStateResidencyTicks::UNDEFINED  40456191000                       # Cumulative time (in ticks) in various power states (Tick)
system.caches.network.msg_count.Control       4119900                       (Unspecified)
system.caches.network.msg_byte.Control       32959200                       (Unspecified)
system.caches.network.msg_count.Data          2058048                       (Unspecified)
system.caches.network.msg_byte.Data         148179456                       (Unspecified)
system.caches.network.msg_count.Response_Data       656924                       (Unspecified)
system.caches.network.msg_byte.Response_Data     47298528                       (Unspecified)
system.caches.network.int_link_buffers102.m_buf_msgs     0.001968                       # Average number of messages in buffer (Unspecified)
system.caches.network.int_link_buffers102.m_stall_time  2419.606013                       # Average number of cycles messages are stalled in this MB (Unspecified)
system.caches.network.int_link_buffers103.m_buf_msgs     0.005241                       # Average number of messages in buffer (Unspecified)
system.caches.network.int_link_buffers103.m_stall_time  2419.370079                       # Average number of cycles messages are stalled in this MB (Unspecified)
system.caches.network.int_link_buffers107.m_buf_msgs     0.000032                       # Average number of messages in buffer (Unspecified)
system.caches.network.int_link_buffers107.m_stall_time  2414.701770                       # Average number of cycles messages are stalled in this MB (Unspecified)
system.caches.network.int_link_buffers11.m_buf_msgs     0.004347                       # Average number of messages in buffer (Unspecified)
system.caches.network.int_link_buffers11.m_stall_time  2921.843112                       # Average number of cycles messages are stalled in this MB (Unspecified)
system.caches.network.int_link_buffers114.m_buf_msgs     0.000011                       # Average number of messages in buffer (Unspecified)
system.caches.network.int_link_buffers114.m_stall_time  2418.439072                       # Average number of cycles messages are stalled in this MB (Unspecified)
[...]
system.caches.controllers2.xyzStatsObjectlatency::underflows            0      0.00%      0.00% # Mem access latency (Unspecified)
system.caches.controllers2.xyzStatsObjectlatency::0-49999       212027    100.00%    100.00% # Mem access latency (Unspecified)
system.caches.controllers2.xyzStatsObjectlatency::50000-99999            0      0.00%    100.00% # Mem access latency (Unspecified)
system.caches.controllers2.xyzStatsObjectlatency::100000            0      0.00%    100.00% # Mem access latency (Unspecified)
system.caches.controllers2.xyzStatsObjectlatency::overflows            0      0.00%    100.00% # Mem access latency (Unspecified)
system.caches.controllers2.xyzStatsObjectlatency::min_value           10                       # Mem access latency (Unspecified)
system.caches.controllers2.xyzStatsObjectlatency::max_value         1080                       # Mem access latency (Unspecified)
system.caches.controllers2.xyzStatsObjectlatency::total       212027                       # Mem access latency (Unspecified)
system.caches.controllers3.xyzStatsObject.total_put            0                       # Total number of put (PutM + PutS) (Unspecified)
system.caches.controllers3.xyzStatsObject.total_put_as_wt            0                       # Total number of put as write through (Unspecified)
system.caches.controllers3.xyzStatsObject.total_putm            0                       # Total number of PutM (Unspecified)
system.caches.controllers3.xyzStatsObject.total_putm_as_wt            0                       # Total number of PutM as write through (Unspecified)
system.caches.controllers3.xyzStatsObject.total_puts            0                       # Total number of PutS (Unspecified)
system.caches.controllers3.xyzStatsObject.total_puts_as_wt            0                       # Total number of PutS as write through (Unspecified)
system.caches.controllers3.xyzStatsObject.total_repl            0                       # Total Replacement (Unspecified)
system.caches.controllers3.xyzStatsObject.total_repl_llc            0                       # Total Replacement of LLC line (Unspecified)
system.caches.controllers3.xyzStatsObject.total_repl_owned            0                       # Total Replacement of owned line (Unspecified)
system.caches.controllers3.xyzStatsObject.total_repl_shared            0                       # Total Replacement of shared line (Unspecified)
system.caches.controllers3.xyzStatsObject.wt_putRatio          nan                       # WT / Put (Unspecified)
system.caches.controllers3.xyzStatsObject.wt_putmRatio          nan                       # PutM WT / PutM (Unspecified)
system.caches.controllers3.xyzStatsObject.wt_putsRatio          nan                       # PutS WT / PutS (Unspecified)
system.caches.controllers3.xyzStatsObjectlatency::samples       182422                       # Mem access latency (Unspecified)
system.caches.controllers3.xyzStatsObjectlatency::mean    48.352677                       # Mem access latency (Unspecified)
system.caches.controllers3.xyzStatsObjectlatency::stdev    94.849225                       # Mem access latency (Unspecified)
system.caches.controllers3.xyzStatsObjectlatency::underflows            0      0.00%      0.00% # Mem access latency (Unspecified)
system.caches.controllers3.xyzStatsObjectlatency::0-49999       182422    100.00%    100.00% # Mem access latency (Unspecified)
system.caches.controllers3.xyzStatsObjectlatency::50000-99999            0      0.00%    100.00% # Mem access latency (Unspecified)
system.caches.controllers3.xyzStatsObjectlatency::100000            0      0.00%    100.00% # Mem access latency (Unspecified)
system.caches.controllers3.xyzStatsObjectlatency::overflows            0      0.00%    100.00% # Mem access latency (Unspecified)
system.caches.controllers3.xyzStatsObjectlatency::min_value           10                       # Mem access latency (Unspecified)
system.caches.controllers3.xyzStatsObjectlatency::max_value         1071                       # Mem access latency (Unspecified)
system.caches.controllers3.xyzStatsObjectlatency::total       182422                       # Mem access latency (Unspecified)
system.caches.controllers4.xyzStatsObject.total_put            0                       # Total number of put (PutM + PutS) (Unspecified)
system.caches.controllers4.xyzStatsObject.total_put_as_wt            0                       # Total number of put as write through (Unspecified)
system.caches.controllers4.xyzStatsObject.total_putm            0                       # Total number of PutM (Unspecified)
system.caches.controllers4.xyzStatsObject.total_putm_as_wt            0                       # Total number of PutM as write through (Unspecified)
system.caches.controllers4.xyzStatsObject.total_puts            0                       # Total number of PutS (Unspecified)
system.caches.controllers4.xyzStatsObject.total_puts_as_wt            0                       # Total number of PutS as write through (Unspecified)
system.caches.controllers4.xyzStatsObject.total_repl            0                       # Total Replacement (Unspecified)
system.caches.controllers4.xyzStatsObject.total_repl_llc            0                       # Total Replacement of LLC line (Unspecified)
system.caches.controllers4.xyzStatsObject.total_repl_owned            0                       # Total Replacement of owned line (Unspecified)
system.caches.controllers4.xyzStatsObject.total_repl_shared            0                       # Total Replacement of shared line (Unspecified)
system.caches.controllers4.xyzStatsObject.wt_putRatio          nan                       # WT / Put (Unspecified)
system.caches.controllers4.xyzStatsObject.wt_putmRatio          nan                       # PutM WT / PutM (Unspecified)
system.caches.controllers4.xyzStatsObject.wt_putsRatio          nan                       # PutS WT / PutS (Unspecified)
system.caches.controllers4.xyzStatsObjectlatency::samples       113802                       # Mem access latency (Unspecified)
system.caches.controllers4.xyzStatsObjectlatency::mean    91.385696                       # Mem access latency (Unspecified)
system.caches.controllers4.xyzStatsObjectlatency::stdev   116.950238                       # Mem access latency (Unspecified)
system.caches.controllers4.xyzStatsObjectlatency::underflows            0      0.00%      0.00% # Mem access latency (Unspecified)
system.caches.controllers4.xyzStatsObjectlatency::0-49999       113802    100.00%    100.00% # Mem access latency (Unspecified)
system.caches.controllers4.xyzStatsObjectlatency::50000-99999            0      0.00%    100.00% # Mem access latency (Unspecified)
system.caches.controllers4.xyzStatsObjectlatency::100000            0      0.00%    100.00% # Mem access latency (Unspecified)
system.caches.controllers4.xyzStatsObjectlatency::overflows            0      0.00%    100.00% # Mem access latency (Unspecified)
system.caches.controllers4.xyzStatsObjectlatency::min_value           15                       # Mem access latency (Unspecified)
system.caches.controllers4.xyzStatsObjectlatency::max_value          729                       # Mem access latency (Unspecified)
system.caches.controllers4.xyzStatsObjectlatency::total       113802                       # Mem access latency (Unspecified)
system.caches.controllers5.xyzStatsObject.total_put            0                       # Total number of put (PutM + PutS) (Unspecified)
system.caches.controllers5.xyzStatsObject.total_put_as_wt            0                       # Total number of put as write through (Unspecified)
system.caches.controllers5.xyzStatsObject.total_putm            0                       # Total number of PutM (Unspecified)
system.caches.controllers5.xyzStatsObject.total_putm_as_wt            0                       # Total number of PutM as write through (Unspecified)
system.caches.controllers5.xyzStatsObject.total_puts            0                       # Total number of PutS (Unspecified)
system.caches.controllers5.xyzStatsObject.total_puts_as_wt            0                       # Total number of PutS as write through (Unspecified)
system.caches.controllers5.xyzStatsObject.total_repl            0                       # Total Replacement (Unspecified)
system.caches.controllers5.xyzStatsObject.total_repl_llc            0                       # Total Replacement of LLC line (Unspecified)
system.caches.controllers5.xyzStatsObject.total_repl_owned            0                       # Total Replacement of owned line (Unspecified)
system.caches.controllers5.xyzStatsObject.total_repl_shared            0                       # Total Replacement of shared line (Unspecified)
system.caches.controllers5.xyzStatsObject.wt_putRatio          nan                       # WT / Put (Unspecified)
system.caches.controllers5.xyzStatsObject.wt_putmRatio          nan                       # PutM WT / PutM (Unspecified)
system.caches.controllers5.xyzStatsObject.wt_putsRatio          nan                       # PutS WT / PutS (Unspecified)
system.caches.controllers5.xyzStatsObjectlatency::samples        70969                       # Mem access latency (Unspecified)
system.caches.controllers5.xyzStatsObjectlatency::mean    54.387859                       # Mem access latency (Unspecified)
system.caches.controllers5.xyzStatsObjectlatency::stdev    97.052220                       # Mem access latency (Unspecified)
system.caches.controllers5.xyzStatsObjectlatency::underflows            0      0.00%      0.00% # Mem access latency (Unspecified)
system.caches.controllers5.xyzStatsObjectlatency::0-49999        70969    100.00%    100.00% # Mem access latency (Unspecified)
system.caches.controllers5.xyzStatsObjectlatency::50000-99999            0      0.00%    100.00% # Mem access latency (Unspecified)
system.caches.controllers5.xyzStatsObjectlatency::100000            0      0.00%    100.00% # Mem access latency (Unspecified)
system.caches.controllers5.xyzStatsObjectlatency::overflows            0      0.00%    100.00% # Mem access latency (Unspecified)
system.caches.controllers5.xyzStatsObjectlatency::min_value           15                       # Mem access latency (Unspecified)
system.caches.controllers5.xyzStatsObjectlatency::max_value          729                       # Mem access latency (Unspecified)
system.caches.controllers5.xyzStatsObjectlatency::total        70969                       # Mem access latency (Unspecified)
system.caches.controllers6.xyzStatsObject.total_put            0                       # Total number of put (PutM + PutS) (Unspecified)
system.caches.controllers6.xyzStatsObject.total_put_as_wt            0                       # Total number of put as write through (Unspecified)
system.caches.controllers6.xyzStatsObject.total_putm            0                       # Total number of PutM (Unspecified)
system.caches.controllers6.xyzStatsObject.total_putm_as_wt            0                       # Total number of PutM as write through (Unspecified)
system.caches.controllers6.xyzStatsObject.total_puts            0                       # Total number of PutS (Unspecified)
system.caches.controllers6.xyzStatsObject.total_puts_as_wt            0                       # Total number of PutS as write through (Unspecified)
system.caches.controllers6.xyzStatsObject.total_repl            0                       # Total Replacement (Unspecified)
system.caches.controllers6.xyzStatsObject.total_repl_llc            0                       # Total Replacement of LLC line (Unspecified)
system.caches.controllers6.xyzStatsObject.total_repl_owned            0                       # Total Replacement of owned line (Unspecified)
system.caches.controllers6.xyzStatsObject.total_repl_shared            0                       # Total Replacement of shared line (Unspecified)
system.caches.controllers6.xyzStatsObject.wt_putRatio          nan                       # WT / Put (Unspecified)
system.caches.controllers6.xyzStatsObject.wt_putmRatio          nan                       # PutM WT / PutM (Unspecified)
system.caches.controllers6.xyzStatsObject.wt_putsRatio          nan                       # PutS WT / PutS (Unspecified)
system.caches.controllers6.xyzStatsObjectlatency::samples       100023                       # Mem access latency (Unspecified)
system.caches.controllers6.xyzStatsObjectlatency::mean    46.369335                       # Mem access latency (Unspecified)
system.caches.controllers6.xyzStatsObjectlatency::stdev    86.550976                       # Mem access latency (Unspecified)
system.caches.controllers6.xyzStatsObjectlatency::underflows            0      0.00%      0.00% # Mem access latency (Unspecified)
system.caches.controllers6.xyzStatsObjectlatency::0-49999       100023    100.00%    100.00% # Mem access latency (Unspecified)
system.caches.controllers6.xyzStatsObjectlatency::50000-99999            0      0.00%    100.00% # Mem access latency (Unspecified)
system.caches.controllers6.xyzStatsObjectlatency::100000            0      0.00%    100.00% # Mem access latency (Unspecified)
system.caches.controllers6.xyzStatsObjectlatency::overflows            0      0.00%    100.00% # Mem access latency (Unspecified)
system.caches.controllers6.xyzStatsObjectlatency::min_value           15                       # Mem access latency (Unspecified)
system.caches.controllers6.xyzStatsObjectlatency::max_value          728                       # Mem access latency (Unspecified)
system.caches.controllers6.xyzStatsObjectlatency::total       100023                       # Mem access latency (Unspecified)
system.caches.controllers7.xyzStatsObject.total_put            0                       # Total number of put (PutM + PutS) (Unspecified)
system.caches.controllers7.xyzStatsObject.total_put_as_wt            0                       # Total number of put as write through (Unspecified)
system.caches.controllers7.xyzStatsObject.total_putm            0                       # Total number of PutM (Unspecified)
system.caches.controllers7.xyzStatsObject.total_putm_as_wt            0                       # Total number of PutM as write through (Unspecified)
system.caches.controllers7.xyzStatsObject.total_puts            0                       # Total number of PutS (Unspecified)
system.caches.controllers7.xyzStatsObject.total_puts_as_wt            0                       # Total number of PutS as write through (Unspecified)
system.caches.controllers7.xyzStatsObject.total_repl            0                       # Total Replacement (Unspecified)
system.caches.controllers7.xyzStatsObject.total_repl_llc            0                       # Total Replacement of LLC line (Unspecified)
system.caches.controllers7.xyzStatsObject.total_repl_owned            0                       # Total Replacement of owned line (Unspecified)
system.caches.controllers7.xyzStatsObject.total_repl_shared            0                       # Total Replacement of shared line (Unspecified)
system.caches.controllers7.xyzStatsObject.wt_putRatio          nan                       # WT / Put (Unspecified)
system.caches.controllers7.xyzStatsObject.wt_putmRatio          nan                       # PutM WT / PutM (Unspecified)
system.caches.controllers7.xyzStatsObject.wt_putsRatio          nan                       # PutS WT / PutS (Unspecified)
system.caches.controllers7.xyzStatsObjectlatency::samples        90735                       # Mem access latency (Unspecified)
system.caches.controllers7.xyzStatsObjectlatency::mean    54.900171                       # Mem access latency (Unspecified)
system.caches.controllers7.xyzStatsObjectlatency::stdev    93.505486                       # Mem access latency (Unspecified)
system.caches.controllers7.xyzStatsObjectlatency::underflows            0      0.00%      0.00% # Mem access latency (Unspecified)
system.caches.controllers7.xyzStatsObjectlatency::0-49999        90735    100.00%    100.00% # Mem access latency (Unspecified)
system.caches.controllers7.xyzStatsObjectlatency::50000-99999            0      0.00%    100.00% # Mem access latency (Unspecified)
system.caches.controllers7.xyzStatsObjectlatency::100000            0      0.00%    100.00% # Mem access latency (Unspecified)
system.caches.controllers7.xyzStatsObjectlatency::overflows            0      0.00%    100.00% # Mem access latency (Unspecified)
system.caches.controllers7.xyzStatsObjectlatency::min_value           15                       # Mem access latency (Unspecified)
system.caches.controllers7.xyzStatsObjectlatency::max_value          729                       # Mem access latency (Unspecified)
system.caches.controllers7.xyzStatsObjectlatency::total        90735                       # Mem access latency (Unspecified)
system.caches.controllers8.xyzStatsObject.total_put       339361                       # Total number of put (PutM + PutS) (Unspecified)
system.caches.controllers8.xyzStatsObject.total_put_as_wt        49400                       # Total number of put as write through (Unspecified)
system.caches.controllers8.xyzStatsObject.total_putm        59493                       # Total number of PutM (Unspecified)
system.caches.controllers8.xyzStatsObject.total_putm_as_wt        13286                       # Total number of PutM as write through (Unspecified)
system.caches.controllers8.xyzStatsObject.total_puts       279868                       # Total number of PutS (Unspecified)
system.caches.controllers8.xyzStatsObject.total_puts_as_wt        36114                       # Total number of PutS as write through (Unspecified)
system.caches.controllers8.xyzStatsObject.total_repl            0                       # Total Replacement (Unspecified)
system.caches.controllers8.xyzStatsObject.total_repl_llc            0                       # Total Replacement of LLC line (Unspecified)
system.caches.controllers8.xyzStatsObject.total_repl_owned            0                       # Total Replacement of owned line (Unspecified)
system.caches.controllers8.xyzStatsObject.total_repl_shared            0                       # Total Replacement of shared line (Unspecified)
system.caches.controllers8.xyzStatsObject.wt_putRatio     0.145568                       # WT / Put (Unspecified)
system.caches.controllers8.xyzStatsObject.wt_putmRatio     0.223320                       # PutM WT / PutM (Unspecified)
system.caches.controllers8.xyzStatsObject.wt_putsRatio     0.129039                       # PutS WT / PutS (Unspecified)
system.caches.controllers8.xyzStatsObjectlatency::samples            0                       # Mem access latency (Unspecified)
system.caches.controllers8.xyzStatsObjectlatency::mean          nan                       # Mem access latency (Unspecified)
system.caches.controllers8.xyzStatsObjectlatency::stdev          nan                       # Mem access latency (Unspecified)
system.caches.controllers8.xyzStatsObjectlatency::underflows            0                       # Mem access latency (Unspecified)
system.caches.controllers8.xyzStatsObjectlatency::0-49999            0                       # Mem access latency (Unspecified)
system.caches.controllers8.xyzStatsObjectlatency::50000-99999            0                       # Mem access latency (Unspecified)
system.caches.controllers8.xyzStatsObjectlatency::100000            0                       # Mem access latency (Unspecified)
system.caches.controllers8.xyzStatsObjectlatency::overflows            0                       # Mem access latency (Unspecified)
system.caches.controllers8.xyzStatsObjectlatency::min_value            0                       # Mem access latency (Unspecified)
system.caches.controllers8.xyzStatsObjectlatency::max_value            0                       # Mem access latency (Unspecified)
system.caches.controllers8.xyzStatsObjectlatency::total            0                       # Mem access latency (Unspecified)

---------- End Simulation Statistics   ----------
