
---------- Begin Simulation Statistics ----------
simSeconds                                   0.040559                       # Number of seconds simulated (Second)
simTicks                                  40559359000                       # Number of ticks simulated (Tick)
finalTick                                 40559359000                       # Number of ticks from beginning of simulation (restored from checkpoints and never reset) (Tick)
simFreq                                  1000000000000                       # The number of ticks per simulated second ((Tick/Second))
hostSeconds                                     28.04                       # Real time elapsed on the host (Second)
hostTickRate                               1446590304                       # The number of ticks simulated per host second (ticks/s) ((Tick/Second))
hostMemory                                    4955608                       # Number of bytes of host memory used (Byte)
simInsts                                     20709470                       # Number of instructions simulated (Count)
simOps                                       33224318                       # Number of ops (including micro ops) simulated (Count)
hostInstRate                                   738607                       # Simulator instruction rate (inst/s) ((Count/Second))
hostOpRate                                    1184947                       # Simulator op (including micro ops) rate (op/s) ((Count/Second))
system.caches.m_outstandReqHistSeqr::bucket_size            1                       (Unspecified)
system.caches.m_outstandReqHistSeqr::max_bucket            9                       (Unspecified)
system.caches.m_outstandReqHistSeqr::samples     32286964                       (Unspecified)
system.caches.m_outstandReqHistSeqr::mean            1                       (Unspecified)
system.caches.m_outstandReqHistSeqr::gmean            1                       (Unspecified)
system.caches.m_outstandReqHistSeqr      |           0      0.00%      0.00% |    32286964    100.00%    100.00% |           0      0.00%    100.00% |           0      0.00%    100.00% |           0      0.00%    100.00% |           0      0.00%    100.00% |           0      0.00%    100.00% |           0      0.00%    100.00% |           0      0.00%    100.00% |           0      0.00%    100.00% (Unspecified)
system.caches.m_outstandReqHistSeqr::total     32286964                       (Unspecified)
system.caches.m_latencyHistSeqr::bucket_size          128                       (Unspecified)
system.caches.m_latencyHistSeqr::max_bucket         1279                       (Unspecified)
system.caches.m_latencyHistSeqr::samples     32286964                       (Unspecified)
system.caches.m_latencyHistSeqr::mean        2.234098                       (Unspecified)
system.caches.m_latencyHistSeqr::gmean       1.081375                       (Unspecified)
system.caches.m_latencyHistSeqr::stdev      17.204893                       (Unspecified)
system.caches.m_latencyHistSeqr          |    32209359     99.76%     99.76% |       39260      0.12%     99.88% |       24532      0.08%     99.96% |        6492      0.02%     99.98% |        3337      0.01%     99.99% |        1706      0.01%     99.99% |        1205      0.00%    100.00% |        1057      0.00%    100.00% |          16      0.00%    100.00% |           0      0.00%    100.00% (Unspecified)
system.caches.m_latencyHistSeqr::total       32286964                       (Unspecified)
system.caches.m_hitLatencyHistSeqr::bucket_size            1                       (Unspecified)
system.caches.m_hitLatencyHistSeqr::max_bucket            9                       (Unspecified)
system.caches.m_hitLatencyHistSeqr::samples     31511014                       (Unspecified)
system.caches.m_hitLatencyHistSeqr::mean            1                       (Unspecified)
system.caches.m_hitLatencyHistSeqr::gmean            1                       (Unspecified)
system.caches.m_hitLatencyHistSeqr       |           0      0.00%      0.00% |    31511014    100.00%    100.00% |           0      0.00%    100.00% |           0      0.00%    100.00% |           0      0.00%    100.00% |           0      0.00%    100.00% |           0      0.00%    100.00% |           0      0.00%    100.00% |           0      0.00%    100.00% |           0      0.00%    100.00% (Unspecified)
system.caches.m_hitLatencyHistSeqr::total     31511014                       (Unspecified)
system.caches.m_missLatencyHistSeqr::bucket_size          128                       (Unspecified)
system.caches.m_missLatencyHistSeqr::max_bucket         1279                       (Unspecified)
system.caches.m_missLatencyHistSeqr::samples       775950                       (Unspecified)
system.caches.m_missLatencyHistSeqr::mean    52.350329                       (Unspecified)
system.caches.m_missLatencyHistSeqr::gmean    25.926126                       (Unspecified)
system.caches.m_missLatencyHistSeqr::stdev    98.708226                       (Unspecified)
system.caches.m_missLatencyHistSeqr      |      698345     90.00%     90.00% |       39260      5.06%     95.06% |       24532      3.16%     98.22% |        6492      0.84%     99.06% |        3337      0.43%     99.49% |        1706      0.22%     99.71% |        1205      0.16%     99.86% |        1057      0.14%    100.00% |          16      0.00%    100.00% |           0      0.00%    100.00% (Unspecified)
system.caches.m_missLatencyHistSeqr::total       775950                       (Unspecified)
system.caches.L0Cache_Controller.Load    |      884499     28.07%     28.07% |      636375     20.19%     48.26% |      821545     26.07%     74.33% |      808821     25.67%    100.00% (Unspecified)
system.caches.L0Cache_Controller.Load::total      3151240                       (Unspecified)
system.caches.L0Cache_Controller.Ifetch  |     7721110     27.29%     27.29% |     5856477     20.70%     47.98% |     7299789     25.80%     73.78% |     7420518     26.22%    100.00% (Unspecified)
system.caches.L0Cache_Controller.Ifetch::total     28297894                       (Unspecified)
system.caches.L0Cache_Controller.Store   |      264784     31.60%     31.60% |      168537     20.12%     51.72% |      166639     19.89%     71.61% |      237870     28.39%    100.00% (Unspecified)
system.caches.L0Cache_Controller.Store::total       837830                       (Unspecified)
system.caches.L0Cache_Controller.Replacement |      191492     29.74%     29.74% |      125402     19.48%     49.22% |      177879     27.63%     76.85% |      149082     23.15%    100.00% (Unspecified)
system.caches.L0Cache_Controller.Replacement::total       643855                       (Unspecified)
system.caches.L0Cache_Controller.Inv     |       88779     30.38%     30.38% |       54805     18.75%     49.13% |       79606     27.24%     76.37% |       69053     23.63%    100.00% (Unspecified)
system.caches.L0Cache_Controller.Inv::total       292243                       (Unspecified)
system.caches.L0Cache_Controller.Data    |      213901     30.41%     30.41% |      134709     19.15%     49.56% |      190873     27.14%     76.69% |      163931     23.31%    100.00% (Unspecified)
system.caches.L0Cache_Controller.Data::total       703414                       (Unspecified)
system.caches.L0Cache_Controller.ExData  |       17374     23.95%     23.95% |       15629     21.55%     45.50% |       21126     29.12%     74.62% |       18407     25.38%    100.00% (Unspecified)
system.caches.L0Cache_Controller.ExData::total        72536                       (Unspecified)
system.caches.L0Cache_Controller.I.Load  |      162505     27.39%     27.39% |      119507     20.14%     47.53% |      171215     28.85%     76.38% |      140141     23.62%    100.00% (Unspecified)
system.caches.L0Cache_Controller.I.Load::total       593368                       (Unspecified)
system.caches.L0Cache_Controller.I.Ifetch |       44988     41.35%     41.35% |       16974     15.60%     56.96% |       23334     21.45%     78.41% |       23492     21.59%    100.00% (Unspecified)
system.caches.L0Cache_Controller.I.Ifetch::total       108788                       (Unspecified)
system.caches.L0Cache_Controller.I.Store |       14880     33.27%     33.27% |        8231     18.40%     51.67% |       10677     23.87%     75.54% |       10940     24.46%    100.00% (Unspecified)
system.caches.L0Cache_Controller.I.Store::total        44728                       (Unspecified)
system.caches.L0Cache_Controller.I.Inv   |       57957     30.59%     30.59% |       35553     18.77%     49.36% |       52314     27.61%     76.97% |       43620     23.03%    100.00% (Unspecified)
system.caches.L0Cache_Controller.I.Inv::total       189444                       (Unspecified)
system.caches.L0Cache_Controller.IS_D.Inv |           1     50.00%     50.00% |           0      0.00%     50.00% |           1     50.00%    100.00% |           0      0.00%    100.00% (Unspecified)
system.caches.L0Cache_Controller.IS_D.Inv::total            2                       (Unspecified)
system.caches.L0Cache_Controller.IS_D.Data |      190119     30.20%     30.20% |      120852     19.19%     49.39% |      173423     27.54%     76.93% |      145226     23.07%    100.00% (Unspecified)
system.caches.L0Cache_Controller.IS_D.Data::total       629620                       (Unspecified)
system.caches.L0Cache_Controller.IS_D.ExData |       17374     23.95%     23.95% |       15629     21.55%     45.50% |       21126     29.12%     74.62% |       18407     25.38%    100.00% (Unspecified)
system.caches.L0Cache_Controller.IS_D.ExData::total        72536                       (Unspecified)
system.caches.L0Cache_Controller.IM_D.Inv |           0      0.00%      0.00% |           0      0.00%      0.00% |           2     66.67%     66.67% |           1     33.33%    100.00% (Unspecified)
system.caches.L0Cache_Controller.IM_D.Inv::total            3                       (Unspecified)
system.caches.L0Cache_Controller.IM_D.Data |       23782     32.23%     32.23% |       13857     18.78%     51.01% |       17450     23.65%     74.65% |       18705     25.35%    100.00% (Unspecified)
system.caches.L0Cache_Controller.IM_D.Data::total        73794                       (Unspecified)
system.caches.L0Cache_Controller.S.Load  |      395420     28.46%     28.46% |      278350     20.04%     48.50% |      359145     25.85%     74.36% |      356232     25.64%    100.00% (Unspecified)
system.caches.L0Cache_Controller.S.Load::total      1389147                       (Unspecified)
system.caches.L0Cache_Controller.S.Ifetch |     7676122     27.23%     27.23% |     5839503     20.72%     47.95% |     7276455     25.81%     73.76% |     7397026     26.24%    100.00% (Unspecified)
system.caches.L0Cache_Controller.S.Ifetch::total     28189106                       (Unspecified)
system.caches.L0Cache_Controller.S.Store |        8902     30.63%     30.63% |        5626     19.36%     49.98% |        6773     23.30%     73.28% |        7765     26.72%    100.00% (Unspecified)
system.caches.L0Cache_Controller.S.Store::total        29066                       (Unspecified)
system.caches.L0Cache_Controller.S.Replacement |      157449     30.43%     30.43% |       99935     19.32%     49.75% |      143423     27.72%     77.47% |      116548     22.53%    100.00% (Unspecified)
system.caches.L0Cache_Controller.S.Replacement::total       517355                       (Unspecified)
system.caches.L0Cache_Controller.S.Inv   |       23728     28.58%     28.58% |       15248     18.36%     46.94% |       23184     27.92%     74.87% |       20869     25.13%    100.00% (Unspecified)
system.caches.L0Cache_Controller.S.Inv::total        83029                       (Unspecified)
system.caches.L0Cache_Controller.M.Load  |      326574     27.94%     27.94% |      238518     20.41%     48.35% |      291185     24.91%     73.27% |      312448     26.73%    100.00% (Unspecified)
system.caches.L0Cache_Controller.M.Load::total      1168725                       (Unspecified)
system.caches.L0Cache_Controller.M.Store |      241002     31.54%     31.54% |      154680     20.25%     51.79% |      149189     19.53%     71.31% |      219165     28.69%    100.00% (Unspecified)
system.caches.L0Cache_Controller.M.Store::total       764036                       (Unspecified)
system.caches.L0Cache_Controller.M.Replacement |       34043     26.91%     26.91% |       25467     20.13%     47.04% |       34456     27.24%     74.28% |       32534     25.72%    100.00% (Unspecified)
system.caches.L0Cache_Controller.M.Replacement::total       126500                       (Unspecified)
system.caches.L0Cache_Controller.M.Inv   |        7093     35.89%     35.89% |        4004     20.26%     56.14% |        4105     20.77%     76.91% |        4563     23.09%    100.00% (Unspecified)
system.caches.L0Cache_Controller.M.Inv::total        19765                       (Unspecified)
system.caches.L1Cache_Controller.Load    |      207493     29.55%     29.55% |      136481     19.44%     48.99% |      194549     27.71%     76.70% |      163633     23.30%    100.00% (Unspecified)
system.caches.L1Cache_Controller.Load::total       702156                       (Unspecified)
system.caches.L1Cache_Controller.Store   |       23782     32.23%     32.23% |       13857     18.78%     51.01% |       17450     23.65%     74.65% |       18705     25.35%    100.00% (Unspecified)
system.caches.L1Cache_Controller.Store::total        73794                       (Unspecified)
system.caches.L1Cache_Controller.PutM    |       34043     26.91%     26.91% |       25467     20.13%     47.04% |       34456     27.24%     74.28% |       32534     25.72%    100.00% (Unspecified)
system.caches.L1Cache_Controller.PutM::total       126500                       (Unspecified)
system.caches.L1Cache_Controller.Replacement |      209463     30.59%     30.59% |      126833     18.53%     49.12% |      184315     26.92%     76.04% |      164028     23.96%    100.00% (Unspecified)
system.caches.L1Cache_Controller.Replacement::total       684639                       (Unspecified)
system.caches.L1Cache_Controller.FwdGetM |        6655     31.73%     31.73% |        5399     25.74%     57.47% |        4137     19.72%     77.19% |        4784     22.81%    100.00% (Unspecified)
system.caches.L1Cache_Controller.FwdGetM::total        20975                       (Unspecified)
system.caches.L1Cache_Controller.Inv     |         119     20.84%     20.84% |         112     19.61%     40.46% |         193     33.80%     74.26% |         147     25.74%    100.00% (Unspecified)
system.caches.L1Cache_Controller.Inv::total          571                       (Unspecified)
system.caches.L1Cache_Controller.PutAck  |      100480     30.32%     30.32% |       61727     18.63%     48.95% |       89764     27.09%     76.03% |       79420     23.97%    100.00% (Unspecified)
system.caches.L1Cache_Controller.PutAck::total       331391                       (Unspecified)
system.caches.L1Cache_Controller.DataDirNoAcks |      110348     30.32%     30.32% |       68071     18.70%     49.02% |       97476     26.78%     75.80% |       88074     24.20%    100.00% (Unspecified)
system.caches.L1Cache_Controller.DataDirNoAcks::total       363969                       (Unspecified)
system.caches.L1Cache_Controller.DataDirAcks |           1     33.33%     33.33% |           1     33.33%     66.67% |           1     33.33%    100.00% |           0      0.00%    100.00% (Unspecified)
system.caches.L1Cache_Controller.DataDirAcks::total            3                       (Unspecified)
system.caches.L1Cache_Controller.DataOwner |        3482     30.32%     30.32% |        2886     25.13%     55.45% |        2532     22.05%     77.50% |        2584     22.50%    100.00% (Unspecified)
system.caches.L1Cache_Controller.DataOwner::total        11484                       (Unspecified)
system.caches.L1Cache_Controller.InvAck  |         207     36.44%     36.44% |         107     18.84%     55.28% |          99     17.43%     72.71% |         155     27.29%    100.00% (Unspecified)
system.caches.L1Cache_Controller.InvAck::total          568                       (Unspecified)
system.caches.L1Cache_Controller.LastInvAck |           1     33.33%     33.33% |           1     33.33%     66.67% |           1     33.33%    100.00% |           0      0.00%    100.00% (Unspecified)
system.caches.L1Cache_Controller.LastInvAck::total            3                       (Unspecified)
system.caches.L1Cache_Controller.WB_Data |        7093     35.89%     35.89% |        4004     20.26%     56.14% |        4105     20.77%     76.91% |        4563     23.09%    100.00% (Unspecified)
system.caches.L1Cache_Controller.WB_Data::total        19765                       (Unspecified)
system.caches.L1Cache_Controller.I.Load  |       93689     29.97%     29.97% |       59003     18.88%     48.85% |       85196     27.25%     76.10% |       74707     23.90%    100.00% (Unspecified)
system.caches.L1Cache_Controller.I.Load::total       312595                       (Unspecified)
system.caches.L1Cache_Controller.I.Store |       10666     34.04%     34.04% |        5871     18.74%     52.78% |        7163     22.86%     75.64% |        7633     24.36%    100.00% (Unspecified)
system.caches.L1Cache_Controller.I.Store::total        31333                       (Unspecified)
system.caches.L1Cache_Controller.IS_D.FwdGetM |          12     21.05%     21.05% |          26     45.61%     66.67% |          11     19.30%     85.96% |           8     14.04%    100.00% (Unspecified)
system.caches.L1Cache_Controller.IS_D.FwdGetM::total           57                       (Unspecified)
system.caches.L1Cache_Controller.IS_D.DataDirNoAcks |       91260     29.98%     29.98% |       56983     18.72%     48.70% |       83245     27.35%     76.05% |       72907     23.95%    100.00% (Unspecified)
system.caches.L1Cache_Controller.IS_D.DataDirNoAcks::total       304395                       (Unspecified)
system.caches.L1Cache_Controller.IS_D.DataOwner |        2429     29.62%     29.62% |        2020     24.63%     54.26% |        1951     23.79%     78.05% |        1800     21.95%    100.00% (Unspecified)
system.caches.L1Cache_Controller.IS_D.DataOwner::total         8200                       (Unspecified)
system.caches.L1Cache_Controller.IM_AD.FwdGetM |          19     50.00%     50.00% |           4     10.53%     60.53% |           6     15.79%     76.32% |           9     23.68%    100.00% (Unspecified)
system.caches.L1Cache_Controller.IM_AD.FwdGetM::total           38                       (Unspecified)
system.caches.L1Cache_Controller.IM_AD.DataDirNoAcks |        9614     34.27%     34.27% |        5005     17.84%     52.12% |        6583     23.47%     75.58% |        6849     24.42%    100.00% (Unspecified)
system.caches.L1Cache_Controller.IM_AD.DataDirNoAcks::total        28051                       (Unspecified)
system.caches.L1Cache_Controller.IM_AD.DataOwner |        1053     32.06%     32.06% |         866     26.37%     58.43% |         581     17.69%     76.13% |         784     23.87%    100.00% (Unspecified)
system.caches.L1Cache_Controller.IM_AD.DataOwner::total         3284                       (Unspecified)
system.caches.L1Cache_Controller.IM_AD.InvAck |          32     26.23%     26.23% |          32     26.23%     52.46% |          23     18.85%     71.31% |          35     28.69%    100.00% (Unspecified)
system.caches.L1Cache_Controller.IM_AD.InvAck::total          122                       (Unspecified)
system.caches.L1Cache_Controller.S.Load  |       98859     30.40%     30.40% |       63869     19.64%     50.04% |       90178     27.73%     77.76% |       72319     22.24%    100.00% (Unspecified)
system.caches.L1Cache_Controller.S.Load::total       325225                       (Unspecified)
system.caches.L1Cache_Controller.S.Store |        9476     30.06%     30.06% |        6084     19.30%     49.35% |        7650     24.26%     73.62% |        8318     26.38%    100.00% (Unspecified)
system.caches.L1Cache_Controller.S.Store::total        31528                       (Unspecified)
system.caches.L1Cache_Controller.S.Replacement |       81563     30.00%     30.00% |       50689     18.64%     48.64% |       75304     27.70%     76.34% |       64342     23.66%    100.00% (Unspecified)
system.caches.L1Cache_Controller.S.Replacement::total       271898                       (Unspecified)
system.caches.L1Cache_Controller.S.Inv   |         118     20.74%     20.74% |         112     19.68%     40.42% |         192     33.74%     74.17% |         147     25.83%    100.00% (Unspecified)
system.caches.L1Cache_Controller.S.Inv::total          569                       (Unspecified)
system.caches.L1Cache_Controller.SM_AD.Inv |           1     50.00%     50.00% |           0      0.00%     50.00% |           1     50.00%    100.00% |           0      0.00%    100.00% (Unspecified)
system.caches.L1Cache_Controller.SM_AD.Inv::total            2                       (Unspecified)
system.caches.L1Cache_Controller.SM_AD.DataDirNoAcks |        9474     30.05%     30.05% |        6083     19.30%     49.35% |        7648     24.26%     73.61% |        8318     26.39%    100.00% (Unspecified)
system.caches.L1Cache_Controller.SM_AD.DataDirNoAcks::total        31523                       (Unspecified)
system.caches.L1Cache_Controller.SM_AD.DataDirAcks |           1     33.33%     33.33% |           1     33.33%     66.67% |           1     33.33%    100.00% |           0      0.00%    100.00% (Unspecified)
system.caches.L1Cache_Controller.SM_AD.DataDirAcks::total            3                       (Unspecified)
system.caches.L1Cache_Controller.SM_AD.InvAck |         175     39.24%     39.24% |          75     16.82%     56.05% |          76     17.04%     73.09% |         120     26.91%    100.00% (Unspecified)
system.caches.L1Cache_Controller.SM_AD.InvAck::total          446                       (Unspecified)
system.caches.L1Cache_Controller.SM_A.LastInvAck |           1     33.33%     33.33% |           1     33.33%     66.67% |           1     33.33%    100.00% |           0      0.00%    100.00% (Unspecified)
system.caches.L1Cache_Controller.SM_A.LastInvAck::total            3                       (Unspecified)
system.caches.L1Cache_Controller.M.Load  |       14945     23.23%     23.23% |       13609     21.15%     44.38% |       19175     29.80%     74.19% |       16607     25.81%    100.00% (Unspecified)
system.caches.L1Cache_Controller.M.Load::total        64336                       (Unspecified)
system.caches.L1Cache_Controller.M.Store |        3640     33.29%     33.29% |        1902     17.40%     50.69% |        2637     24.12%     74.81% |        2754     25.19%    100.00% (Unspecified)
system.caches.L1Cache_Controller.M.Store::total        10933                       (Unspecified)
system.caches.L1Cache_Controller.M.Replacement |       18917     31.80%     31.80% |       11038     18.55%     50.35% |       14460     24.31%     74.66% |       15078     25.34%    100.00% (Unspecified)
system.caches.L1Cache_Controller.M.Replacement::total        59493                       (Unspecified)
system.caches.L1Cache_Controller.M.FwdGetM |        3629     31.61%     31.61% |        2916     25.40%     57.01% |        2284     19.89%     76.90% |        2652     23.10%    100.00% (Unspecified)
system.caches.L1Cache_Controller.M.FwdGetM::total        11481                       (Unspecified)
system.caches.L1Cache_Controller.M_P.PutM |       34038     26.91%     26.91% |       25467     20.13%     47.04% |       34453     27.24%     74.28% |       32533     25.72%    100.00% (Unspecified)
system.caches.L1Cache_Controller.M_P.PutM::total       126491                       (Unspecified)
system.caches.L1Cache_Controller.M_P.Replacement |        4133     39.42%     39.42% |        1581     15.08%     54.50% |        2291     21.85%     76.35% |        2480     23.65%    100.00% (Unspecified)
system.caches.L1Cache_Controller.M_P.Replacement::total        10485                       (Unspecified)
system.caches.L1Cache_Controller.M_P.FwdGetM |        2964     31.92%     31.92% |        2423     26.09%     58.01% |        1816     19.56%     77.57% |        2083     22.43%    100.00% (Unspecified)
system.caches.L1Cache_Controller.M_P.FwdGetM::total         9286                       (Unspecified)
system.caches.L1Cache_Controller.M_P.WB_Data |           1     33.33%     33.33% |           0      0.00%     33.33% |           1     33.33%     66.67% |           1     33.33%    100.00% (Unspecified)
system.caches.L1Cache_Controller.M_P.WB_Data::total            3                       (Unspecified)
system.caches.L1Cache_Controller.MP_D.PutM |           5     55.56%     55.56% |           0      0.00%     55.56% |           3     33.33%     88.89% |           1     11.11%    100.00% (Unspecified)
system.caches.L1Cache_Controller.MP_D.PutM::total            9                       (Unspecified)
system.caches.L1Cache_Controller.MP_D.Replacement |        4136     39.40%     39.40% |        1583     15.08%     54.48% |        2293     21.84%     76.33% |        2485     23.67%    100.00% (Unspecified)
system.caches.L1Cache_Controller.MP_D.Replacement::total        10497                       (Unspecified)
system.caches.L1Cache_Controller.MP_D.FwdGetM |          29     26.36%     26.36% |          30     27.27%     53.64% |          20     18.18%     71.82% |          31     28.18%    100.00% (Unspecified)
system.caches.L1Cache_Controller.MP_D.FwdGetM::total          110                       (Unspecified)
system.caches.L1Cache_Controller.MP_D.WB_Data |        7092     35.89%     35.89% |        4004     20.26%     56.15% |        4104     20.77%     76.92% |        4562     23.08%    100.00% (Unspecified)
system.caches.L1Cache_Controller.MP_D.WB_Data::total        19762                       (Unspecified)
system.caches.L1Cache_Controller.MI_A.Replacement |       18961     31.79%     31.79% |       11072     18.56%     50.35% |       14510     24.32%     74.67% |       15109     25.33%    100.00% (Unspecified)
system.caches.L1Cache_Controller.MI_A.Replacement::total        59652                       (Unspecified)
system.caches.L1Cache_Controller.MI_A.FwdGetM |           2     66.67%     66.67% |           0      0.00%     66.67% |           0      0.00%     66.67% |           1     33.33%    100.00% (Unspecified)
system.caches.L1Cache_Controller.MI_A.FwdGetM::total            3                       (Unspecified)
system.caches.L1Cache_Controller.MI_A.PutAck |       18915     31.80%     31.80% |       11038     18.55%     50.35% |       14460     24.31%     74.66% |       15077     25.34%    100.00% (Unspecified)
system.caches.L1Cache_Controller.MI_A.PutAck::total        59490                       (Unspecified)
system.caches.L1Cache_Controller.SI_A.Replacement |       81753     29.99%     29.99% |       50870     18.66%     48.65% |       75457     27.68%     76.33% |       64534     23.67%    100.00% (Unspecified)
system.caches.L1Cache_Controller.SI_A.Replacement::total       272614                       (Unspecified)
system.caches.L1Cache_Controller.SI_A.PutAck |       81563     30.00%     30.00% |       50689     18.64%     48.64% |       75304     27.70%     76.34% |       64342     23.66%    100.00% (Unspecified)
system.caches.L1Cache_Controller.SI_A.PutAck::total       271898                       (Unspecified)
system.caches.L1Cache_Controller.II_A.PutAck |           2     66.67%     66.67% |           0      0.00%     66.67% |           0      0.00%     66.67% |           1     33.33%    100.00% (Unspecified)
system.caches.L1Cache_Controller.II_A.PutAck::total            3                       (Unspecified)
system.caches.Directory_Controller.GetS        312595      0.00%      0.00% (Unspecified)
system.caches.Directory_Controller.GetM         62861      0.00%      0.00% (Unspecified)
system.caches.Directory_Controller.PutSNotLast       121019      0.00%      0.00% (Unspecified)
system.caches.Directory_Controller.PutSLast       122481      0.00%      0.00% (Unspecified)
system.caches.Directory_Controller.PutSLastWT        28398      0.00%      0.00% (Unspecified)
system.caches.Directory_Controller.PutMOwner        46058      0.00%      0.00% (Unspecified)
system.caches.Directory_Controller.PutMOwnerWT        13432      0.00%      0.00% (Unspecified)
system.caches.Directory_Controller.PutMNonOwner            3      0.00%      0.00% (Unspecified)
system.caches.Directory_Controller.Sync          7989      0.00%      0.00% (Unspecified)
system.caches.Directory_Controller.MemData        36128      0.00%      0.00% (Unspecified)
system.caches.Directory_Controller.LastMemAck        49819      0.00%      0.00% (Unspecified)
system.caches.Directory_Controller.I.GetS        24293      0.00%      0.00% (Unspecified)
system.caches.Directory_Controller.I.GetM        11835      0.00%      0.00% (Unspecified)
system.caches.Directory_Controller.S.GetS       121668      0.00%      0.00% (Unspecified)
system.caches.Directory_Controller.S.GetM        31635      0.00%      0.00% (Unspecified)
system.caches.Directory_Controller.S.PutSNotLast       121019      0.00%      0.00% (Unspecified)
system.caches.Directory_Controller.S.PutSLast       122481      0.00%      0.00% (Unspecified)
system.caches.Directory_Controller.S.PutSLastWT        28398      0.00%      0.00% (Unspecified)
system.caches.Directory_Controller.M.GetS         8200      0.00%      0.00% (Unspecified)
system.caches.Directory_Controller.M.GetM         3284      0.00%      0.00% (Unspecified)
system.caches.Directory_Controller.M.PutMOwner        46058      0.00%      0.00% (Unspecified)
system.caches.Directory_Controller.M.PutMOwnerWT        13432      0.00%      0.00% (Unspecified)
system.caches.Directory_Controller.M.PutMNonOwner            3      0.00%      0.00% (Unspecified)
system.caches.Directory_Controller.LLCOnly.GetS       158434      0.00%      0.00% (Unspecified)
system.caches.Directory_Controller.LLCOnly.GetM        16107      0.00%      0.00% (Unspecified)
system.caches.Directory_Controller.LLCOnly.Sync         7989      0.00%      0.00% (Unspecified)
system.caches.Directory_Controller.LLCOnly_m.LastMemAck        36387      0.00%      0.00% (Unspecified)
system.caches.Directory_Controller.S_m.MemData        24293      0.00%      0.00% (Unspecified)
system.caches.Directory_Controller.M_m.MemData        11835      0.00%      0.00% (Unspecified)
system.caches.Directory_Controller.MI_m.LastMemAck        13432      0.00%      0.00% (Unspecified)
system.caches.RequestType.LD.latency_hist_seqr::bucket_size          128                       (Unspecified)
system.caches.RequestType.LD.latency_hist_seqr::max_bucket         1279                       (Unspecified)
system.caches.RequestType.LD.latency_hist_seqr::samples      3151240                       (Unspecified)
system.caches.RequestType.LD.latency_hist_seqr::mean     8.107351                       (Unspecified)
system.caches.RequestType.LD.latency_hist_seqr::gmean     1.784034                       (Unspecified)
system.caches.RequestType.LD.latency_hist_seqr::stdev    33.688359                       (Unspecified)
system.caches.RequestType.LD.latency_hist_seqr |     3113041     98.79%     98.79% |       20992      0.67%     99.45% |       12118      0.38%     99.84% |        3340      0.11%     99.94% |        1300      0.04%     99.99% |         333      0.01%    100.00% |          84      0.00%    100.00% |          32      0.00%    100.00% |           0      0.00%    100.00% |           0      0.00%    100.00% (Unspecified)
system.caches.RequestType.LD.latency_hist_seqr::total      3151240                       (Unspecified)
system.caches.RequestType.LD.hit_latency_hist_seqr::bucket_size            1                       (Unspecified)
system.caches.RequestType.LD.hit_latency_hist_seqr::max_bucket            9                       (Unspecified)
system.caches.RequestType.LD.hit_latency_hist_seqr::samples      2557872                       (Unspecified)
system.caches.RequestType.LD.hit_latency_hist_seqr::mean            1                       (Unspecified)
system.caches.RequestType.LD.hit_latency_hist_seqr::gmean            1                       (Unspecified)
system.caches.RequestType.LD.hit_latency_hist_seqr |           0      0.00%      0.00% |     2557872    100.00%    100.00% |           0      0.00%    100.00% |           0      0.00%    100.00% |           0      0.00%    100.00% |           0      0.00%    100.00% |           0      0.00%    100.00% |           0      0.00%    100.00% |           0      0.00%    100.00% |           0      0.00%    100.00% (Unspecified)
system.caches.RequestType.LD.hit_latency_hist_seqr::total      2557872                       (Unspecified)
system.caches.RequestType.LD.miss_latency_hist_seqr::bucket_size          128                       (Unspecified)
system.caches.RequestType.LD.miss_latency_hist_seqr::max_bucket         1279                       (Unspecified)
system.caches.RequestType.LD.miss_latency_hist_seqr::samples       593368                       (Unspecified)
system.caches.RequestType.LD.miss_latency_hist_seqr::mean    38.745494                       (Unspecified)
system.caches.RequestType.LD.miss_latency_hist_seqr::gmean    21.634347                       (Unspecified)
system.caches.RequestType.LD.miss_latency_hist_seqr::stdev    69.790936                       (Unspecified)
system.caches.RequestType.LD.miss_latency_hist_seqr |      555169     93.56%     93.56% |       20992      3.54%     97.10% |       12118      2.04%     99.14% |        3340      0.56%     99.71% |        1300      0.22%     99.92% |         333      0.06%     99.98% |          84      0.01%     99.99% |          32      0.01%    100.00% |           0      0.00%    100.00% |           0      0.00%    100.00% (Unspecified)
system.caches.RequestType.LD.miss_latency_hist_seqr::total       593368                       (Unspecified)
system.caches.RequestType.ST.latency_hist_seqr::bucket_size          128                       (Unspecified)
system.caches.RequestType.ST.latency_hist_seqr::max_bucket         1279                       (Unspecified)
system.caches.RequestType.ST.latency_hist_seqr::samples       776528                       (Unspecified)
system.caches.RequestType.ST.latency_hist_seqr::mean    10.631536                       (Unspecified)
system.caches.RequestType.ST.latency_hist_seqr::gmean     1.398936                       (Unspecified)
system.caches.RequestType.ST.latency_hist_seqr::stdev    63.860768                       (Unspecified)
system.caches.RequestType.ST.latency_hist_seqr |      760686     97.96%     97.96% |        6316      0.81%     98.77% |        4506      0.58%     99.35% |        1246      0.16%     99.51% |         983      0.13%     99.64% |         948      0.12%     99.76% |         913      0.12%     99.88% |         915      0.12%    100.00% |          15      0.00%    100.00% |           0      0.00%    100.00% (Unspecified)
system.caches.RequestType.ST.latency_hist_seqr::total       776528                       (Unspecified)
system.caches.RequestType.ST.hit_latency_hist_seqr::bucket_size            1                       (Unspecified)
system.caches.RequestType.ST.hit_latency_hist_seqr::max_bucket            9                       (Unspecified)
system.caches.RequestType.ST.hit_latency_hist_seqr::samples       709585                       (Unspecified)
system.caches.RequestType.ST.hit_latency_hist_seqr::mean            1                       (Unspecified)
system.caches.RequestType.ST.hit_latency_hist_seqr::gmean            1                       (Unspecified)
system.caches.RequestType.ST.hit_latency_hist_seqr |           0      0.00%      0.00% |      709585    100.00%    100.00% |           0      0.00%    100.00% |           0      0.00%    100.00% |           0      0.00%    100.00% |           0      0.00%    100.00% |           0      0.00%    100.00% |           0      0.00%    100.00% |           0      0.00%    100.00% |           0      0.00%    100.00% (Unspecified)
system.caches.RequestType.ST.hit_latency_hist_seqr::total       709585                       (Unspecified)
system.caches.RequestType.ST.miss_latency_hist_seqr::bucket_size          128                       (Unspecified)
system.caches.RequestType.ST.miss_latency_hist_seqr::max_bucket         1279                       (Unspecified)
system.caches.RequestType.ST.miss_latency_hist_seqr::samples        66943                       (Unspecified)
system.caches.RequestType.ST.miss_latency_hist_seqr::mean   112.724258                       (Unspecified)
system.caches.RequestType.ST.miss_latency_hist_seqr::gmean    49.116925                       (Unspecified)
system.caches.RequestType.ST.miss_latency_hist_seqr::stdev   189.474742                       (Unspecified)
system.caches.RequestType.ST.miss_latency_hist_seqr |       51101     76.34%     76.34% |        6316      9.43%     85.77% |        4506      6.73%     92.50% |        1246      1.86%     94.36% |         983      1.47%     95.83% |         948      1.42%     97.25% |         913      1.36%     98.61% |         915      1.37%     99.98% |          15      0.02%    100.00% |           0      0.00%    100.00% (Unspecified)
system.caches.RequestType.ST.miss_latency_hist_seqr::total        66943                       (Unspecified)
system.caches.RequestType.IFETCH.latency_hist_seqr::bucket_size          128                       (Unspecified)
system.caches.RequestType.IFETCH.latency_hist_seqr::max_bucket         1279                       (Unspecified)
system.caches.RequestType.IFETCH.latency_hist_seqr::samples     28297894                       (Unspecified)
system.caches.RequestType.IFETCH.latency_hist_seqr::mean     1.338097                       (Unspecified)
system.caches.RequestType.IFETCH.latency_hist_seqr::gmean     1.014808                       (Unspecified)
system.caches.RequestType.IFETCH.latency_hist_seqr::stdev     9.510219                       (Unspecified)
system.caches.RequestType.IFETCH.latency_hist_seqr |    28275122     99.92%     99.92% |       11482      0.04%     99.96% |        7668      0.03%     99.99% |        1851      0.01%     99.99% |        1040      0.00%    100.00% |         413      0.00%    100.00% |         208      0.00%    100.00% |         109      0.00%    100.00% |           1      0.00%    100.00% |           0      0.00%    100.00% (Unspecified)
system.caches.RequestType.IFETCH.latency_hist_seqr::total     28297894                       (Unspecified)
system.caches.RequestType.IFETCH.hit_latency_hist_seqr::bucket_size            1                       (Unspecified)
system.caches.RequestType.IFETCH.hit_latency_hist_seqr::max_bucket            9                       (Unspecified)
system.caches.RequestType.IFETCH.hit_latency_hist_seqr::samples     28189106                       (Unspecified)
system.caches.RequestType.IFETCH.hit_latency_hist_seqr::mean            1                       (Unspecified)
system.caches.RequestType.IFETCH.hit_latency_hist_seqr::gmean            1                       (Unspecified)
system.caches.RequestType.IFETCH.hit_latency_hist_seqr |           0      0.00%      0.00% |    28189106    100.00%    100.00% |           0      0.00%    100.00% |           0      0.00%    100.00% |           0      0.00%    100.00% |           0      0.00%    100.00% |           0      0.00%    100.00% |           0      0.00%    100.00% |           0      0.00%    100.00% |           0      0.00%    100.00% (Unspecified)
system.caches.RequestType.IFETCH.hit_latency_hist_seqr::total     28189106                       (Unspecified)
system.caches.RequestType.IFETCH.miss_latency_hist_seqr::bucket_size          128                       (Unspecified)
system.caches.RequestType.IFETCH.miss_latency_hist_seqr::max_bucket         1279                       (Unspecified)
system.caches.RequestType.IFETCH.miss_latency_hist_seqr::samples       108788                       (Unspecified)
system.caches.RequestType.IFETCH.miss_latency_hist_seqr::mean    88.945702                       (Unspecified)
system.caches.RequestType.IFETCH.miss_latency_hist_seqr::gmean    45.772764                       (Unspecified)
system.caches.RequestType.IFETCH.miss_latency_hist_seqr::stdev   125.784587                       (Unspecified)
system.caches.RequestType.IFETCH.miss_latency_hist_seqr |       86016     79.07%     79.07% |       11482     10.55%     89.62% |        7668      7.05%     96.67% |        1851      1.70%     98.37% |        1040      0.96%     99.33% |         413      0.38%     99.71% |         208      0.19%     99.90% |         109      0.10%    100.00% |           1      0.00%    100.00% |           0      0.00%    100.00% (Unspecified)
system.caches.RequestType.IFETCH.miss_latency_hist_seqr::total       108788                       (Unspecified)
system.caches.RequestType.RMW_Read.latency_hist_seqr::bucket_size          128                       (Unspecified)
system.caches.RequestType.RMW_Read.latency_hist_seqr::max_bucket         1279                       (Unspecified)
system.caches.RequestType.RMW_Read.latency_hist_seqr::samples        21348                       (Unspecified)
system.caches.RequestType.RMW_Read.latency_hist_seqr::mean     7.332771                       (Unspecified)
system.caches.RequestType.RMW_Read.latency_hist_seqr::gmean     1.409730                       (Unspecified)
system.caches.RequestType.RMW_Read.latency_hist_seqr::stdev    34.645446                       (Unspecified)
system.caches.RequestType.RMW_Read.latency_hist_seqr |       21005     98.39%     98.39% |         205      0.96%     99.35% |         112      0.52%     99.88% |          16      0.07%     99.95% |           6      0.03%     99.98% |           4      0.02%    100.00% |           0      0.00%    100.00% |           0      0.00%    100.00% |           0      0.00%    100.00% |           0      0.00%    100.00% (Unspecified)
system.caches.RequestType.RMW_Read.latency_hist_seqr::total        21348                       (Unspecified)
system.caches.RequestType.RMW_Read.hit_latency_hist_seqr::bucket_size            1                       (Unspecified)
system.caches.RequestType.RMW_Read.hit_latency_hist_seqr::max_bucket            9                       (Unspecified)
system.caches.RequestType.RMW_Read.hit_latency_hist_seqr::samples        19380                       (Unspecified)
system.caches.RequestType.RMW_Read.hit_latency_hist_seqr::mean            1                       (Unspecified)
system.caches.RequestType.RMW_Read.hit_latency_hist_seqr::gmean            1                       (Unspecified)
system.caches.RequestType.RMW_Read.hit_latency_hist_seqr |           0      0.00%      0.00% |       19380    100.00%    100.00% |           0      0.00%    100.00% |           0      0.00%    100.00% |           0      0.00%    100.00% |           0      0.00%    100.00% |           0      0.00%    100.00% |           0      0.00%    100.00% |           0      0.00%    100.00% |           0      0.00%    100.00% (Unspecified)
system.caches.RequestType.RMW_Read.hit_latency_hist_seqr::total        19380                       (Unspecified)
system.caches.RequestType.RMW_Read.miss_latency_hist_seqr::bucket_size          128                       (Unspecified)
system.caches.RequestType.RMW_Read.miss_latency_hist_seqr::max_bucket         1279                       (Unspecified)
system.caches.RequestType.RMW_Read.miss_latency_hist_seqr::samples         1968                       (Unspecified)
system.caches.RequestType.RMW_Read.miss_latency_hist_seqr::mean    69.695122                       (Unspecified)
system.caches.RequestType.RMW_Read.miss_latency_hist_seqr::gmean    41.472441                       (Unspecified)
system.caches.RequestType.RMW_Read.miss_latency_hist_seqr::stdev    93.489275                       (Unspecified)
system.caches.RequestType.RMW_Read.miss_latency_hist_seqr |        1625     82.57%     82.57% |         205     10.42%     92.99% |         112      5.69%     98.68% |          16      0.81%     99.49% |           6      0.30%     99.80% |           4      0.20%    100.00% |           0      0.00%    100.00% |           0      0.00%    100.00% |           0      0.00%    100.00% |           0      0.00%    100.00% (Unspecified)
system.caches.RequestType.RMW_Read.miss_latency_hist_seqr::total         1968                       (Unspecified)
system.caches.RequestType.Locked_RMW_Read.latency_hist_seqr::bucket_size          128                       (Unspecified)
system.caches.RequestType.Locked_RMW_Read.latency_hist_seqr::max_bucket         1279                       (Unspecified)
system.caches.RequestType.Locked_RMW_Read.latency_hist_seqr::samples        19977                       (Unspecified)
system.caches.RequestType.Locked_RMW_Read.latency_hist_seqr::mean    14.342043                       (Unspecified)
system.caches.RequestType.Locked_RMW_Read.latency_hist_seqr::gmean     2.430246                       (Unspecified)
system.caches.RequestType.Locked_RMW_Read.latency_hist_seqr::stdev    44.367977                       (Unspecified)
system.caches.RequestType.Locked_RMW_Read.latency_hist_seqr |       19528     97.75%     97.75% |         265      1.33%     99.08% |         128      0.64%     99.72% |          39      0.20%     99.91% |           8      0.04%     99.95% |           8      0.04%     99.99% |           0      0.00%     99.99% |           1      0.01%    100.00% |           0      0.00%    100.00% |           0      0.00%    100.00% (Unspecified)
system.caches.RequestType.Locked_RMW_Read.latency_hist_seqr::total        19977                       (Unspecified)
system.caches.RequestType.Locked_RMW_Read.hit_latency_hist_seqr::bucket_size            1                       (Unspecified)
system.caches.RequestType.Locked_RMW_Read.hit_latency_hist_seqr::max_bucket            9                       (Unspecified)
system.caches.RequestType.Locked_RMW_Read.hit_latency_hist_seqr::samples        15094                       (Unspecified)
system.caches.RequestType.Locked_RMW_Read.hit_latency_hist_seqr::mean            1                       (Unspecified)
system.caches.RequestType.Locked_RMW_Read.hit_latency_hist_seqr::gmean            1                       (Unspecified)
system.caches.RequestType.Locked_RMW_Read.hit_latency_hist_seqr |           0      0.00%      0.00% |       15094    100.00%    100.00% |           0      0.00%    100.00% |           0      0.00%    100.00% |           0      0.00%    100.00% |           0      0.00%    100.00% |           0      0.00%    100.00% |           0      0.00%    100.00% |           0      0.00%    100.00% |           0      0.00%    100.00% (Unspecified)
system.caches.RequestType.Locked_RMW_Read.hit_latency_hist_seqr::total        15094                       (Unspecified)
system.caches.RequestType.Locked_RMW_Read.miss_latency_hist_seqr::bucket_size          128                       (Unspecified)
system.caches.RequestType.Locked_RMW_Read.miss_latency_hist_seqr::max_bucket         1279                       (Unspecified)
system.caches.RequestType.Locked_RMW_Read.miss_latency_hist_seqr::samples         4883                       (Unspecified)
system.caches.RequestType.Locked_RMW_Read.miss_latency_hist_seqr::mean    55.584067                       (Unspecified)
system.caches.RequestType.Locked_RMW_Read.miss_latency_hist_seqr::gmean    37.822130                       (Unspecified)
system.caches.RequestType.Locked_RMW_Read.miss_latency_hist_seqr::stdev    76.178038                       (Unspecified)
system.caches.RequestType.Locked_RMW_Read.miss_latency_hist_seqr |        4434     90.80%     90.80% |         265      5.43%     96.23% |         128      2.62%     98.85% |          39      0.80%     99.65% |           8      0.16%     99.82% |           8      0.16%     99.98% |           0      0.00%     99.98% |           1      0.02%    100.00% |           0      0.00%    100.00% |           0      0.00%    100.00% (Unspecified)
system.caches.RequestType.Locked_RMW_Read.miss_latency_hist_seqr::total         4883                       (Unspecified)
system.caches.RequestType.Locked_RMW_Write.latency_hist_seqr::bucket_size            1                       (Unspecified)
system.caches.RequestType.Locked_RMW_Write.latency_hist_seqr::max_bucket            9                       (Unspecified)
system.caches.RequestType.Locked_RMW_Write.latency_hist_seqr::samples        19977                       (Unspecified)
system.caches.RequestType.Locked_RMW_Write.latency_hist_seqr::mean            1                       (Unspecified)
system.caches.RequestType.Locked_RMW_Write.latency_hist_seqr::gmean            1                       (Unspecified)
system.caches.RequestType.Locked_RMW_Write.latency_hist_seqr |           0      0.00%      0.00% |       19977    100.00%    100.00% |           0      0.00%    100.00% |           0      0.00%    100.00% |           0      0.00%    100.00% |           0      0.00%    100.00% |           0      0.00%    100.00% |           0      0.00%    100.00% |           0      0.00%    100.00% |           0      0.00%    100.00% (Unspecified)
system.caches.RequestType.Locked_RMW_Write.latency_hist_seqr::total        19977                       (Unspecified)
system.caches.RequestType.Locked_RMW_Write.hit_latency_hist_seqr::bucket_size            1                       (Unspecified)
system.caches.RequestType.Locked_RMW_Write.hit_latency_hist_seqr::max_bucket            9                       (Unspecified)
system.caches.RequestType.Locked_RMW_Write.hit_latency_hist_seqr::samples        19977                       (Unspecified)
system.caches.RequestType.Locked_RMW_Write.hit_latency_hist_seqr::mean            1                       (Unspecified)
system.caches.RequestType.Locked_RMW_Write.hit_latency_hist_seqr::gmean            1                       (Unspecified)
system.caches.RequestType.Locked_RMW_Write.hit_latency_hist_seqr |           0      0.00%      0.00% |       19977    100.00%    100.00% |           0      0.00%    100.00% |           0      0.00%    100.00% |           0      0.00%    100.00% |           0      0.00%    100.00% |           0      0.00%    100.00% |           0      0.00%    100.00% |           0      0.00%    100.00% |           0      0.00%    100.00% (Unspecified)
system.caches.RequestType.Locked_RMW_Write.hit_latency_hist_seqr::total        19977                       (Unspecified)
system.caches.controllers0.DCache.m_demand_hits            0                       # Number of cache demand hits (Unspecified)
system.caches.controllers0.DCache.m_demand_misses            0                       # Number of cache demand misses (Unspecified)
system.caches.controllers0.DCache.m_demand_accesses            0                       # Number of cache demand accesses (Unspecified)
system.caches.controllers0.ICache.m_demand_hits            0                       # Number of cache demand hits (Unspecified)
system.caches.controllers0.ICache.m_demand_misses            0                       # Number of cache demand misses (Unspecified)
system.caches.controllers0.ICache.m_demand_accesses            0                       # Number of cache demand accesses (Unspecified)
system.caches.controllers0.forwardFromL1.m_buf_msgs     7.353538                       # Average number of messages in buffer (Unspecified)
system.caches.controllers0.forwardFromL1.m_stall_time  5000.443473                       # Average number of cycles messages are stalled in this MB (Unspecified)
system.caches.controllers0.forwardFromL1.m_stall_count            1                       # Number of times messages were stalled (Unspecified)
system.caches.controllers0.mandatoryQueue.m_buf_msgs     0.218702                       # Average number of messages in buffer (Unspecified)
system.caches.controllers0.mandatoryQueue.m_stall_time   999.999975                       # Average number of cycles messages are stalled in this MB (Unspecified)
system.caches.controllers0.power_state.pwrStateResidencyTicks::UNDEFINED  40559359000                       # Cumulative time (in ticks) in various power states (Tick)
system.caches.controllers0.requestToL1.m_buf_msgs     0.006541                       # Average number of messages in buffer (Unspecified)
system.caches.controllers0.requestToL1.m_stall_time   999.999951                       # Average number of cycles messages are stalled in this MB (Unspecified)
system.caches.controllers0.responseFromL1.m_buf_msgs     0.005702                       # Average number of messages in buffer (Unspecified)
system.caches.controllers0.responseFromL1.m_stall_time  4999.983851                       # Average number of cycles messages are stalled in this MB (Unspecified)
system.caches.controllers0.responseToL1.m_buf_msgs     0.000175                       # Average number of messages in buffer (Unspecified)
system.caches.controllers0.responseToL1.m_stall_time   999.609757                       # Average number of cycles messages are stalled in this MB (Unspecified)
system.caches.controllers0.xyzStatsObject.power_state.pwrStateResidencyTicks::UNDEFINED  40559359000                       # Cumulative time (in ticks) in various power states (Tick)
system.caches.controllers1.DCache.m_demand_hits            0                       # Number of cache demand hits (Unspecified)
system.caches.controllers1.DCache.m_demand_misses            0                       # Number of cache demand misses (Unspecified)
system.caches.controllers1.DCache.m_demand_accesses            0                       # Number of cache demand accesses (Unspecified)
system.caches.controllers1.ICache.m_demand_hits            0                       # Number of cache demand hits (Unspecified)
system.caches.controllers1.ICache.m_demand_misses            0                       # Number of cache demand misses (Unspecified)
system.caches.controllers1.ICache.m_demand_accesses            0                       # Number of cache demand accesses (Unspecified)
system.caches.controllers1.forwardFromL1.m_buf_msgs     3.348246                       # Average number of messages in buffer (Unspecified)
system.caches.controllers1.forwardFromL1.m_stall_time  4041.370057                       # Average number of cycles messages are stalled in this MB (Unspecified)
system.caches.controllers1.mandatoryQueue.m_buf_msgs     0.164238                       # Average number of messages in buffer (Unspecified)
system.caches.controllers1.mandatoryQueue.m_stall_time   808.271575                       # Average number of cycles messages are stalled in this MB (Unspecified)
system.caches.controllers1.power_state.pwrStateResidencyTicks::UNDEFINED  40559359000                       # Cumulative time (in ticks) in various power states (Tick)
system.caches.controllers1.requestToL1.m_buf_msgs     0.004335                       # Average number of messages in buffer (Unspecified)
system.caches.controllers1.requestToL1.m_stall_time   808.271551                       # Average number of cycles messages are stalled in this MB (Unspecified)
system.caches.controllers1.responseFromL1.m_buf_msgs     0.003707                       # Average number of messages in buffer (Unspecified)
system.caches.controllers1.responseFromL1.m_stall_time  4041.354426                       # Average number of cycles messages are stalled in this MB (Unspecified)
system.caches.controllers1.responseToL1.m_buf_msgs     0.000099                       # Average number of messages in buffer (Unspecified)
system.caches.controllers1.responseToL1.m_stall_time   807.438007                       # Average number of cycles messages are stalled in this MB (Unspecified)
system.caches.controllers1.xyzStatsObject.power_state.pwrStateResidencyTicks::UNDEFINED  40559359000                       # Cumulative time (in ticks) in various power states (Tick)
system.caches.controllers2.DCache.m_demand_hits            0                       # Number of cache demand hits (Unspecified)
system.caches.controllers2.DCache.m_demand_misses            0                       # Number of cache demand misses (Unspecified)
system.caches.controllers2.DCache.m_demand_accesses            0                       # Number of cache demand accesses (Unspecified)
system.caches.controllers2.ICache.m_demand_hits            0                       # Number of cache demand hits (Unspecified)
system.caches.controllers2.ICache.m_demand_misses            0                       # Number of cache demand misses (Unspecified)
system.caches.controllers2.ICache.m_demand_accesses            0                       # Number of cache demand accesses (Unspecified)
system.caches.controllers2.forwardFromL1.m_buf_msgs     4.973089                       # Average number of messages in buffer (Unspecified)
system.caches.controllers2.forwardFromL1.m_stall_time  4034.438340                       # Average number of cycles messages are stalled in this MB (Unspecified)
system.caches.controllers2.forwardFromL1.m_stall_count            3                       # Number of times messages were stalled (Unspecified)
system.caches.controllers2.mandatoryQueue.m_buf_msgs     0.204342                       # Average number of messages in buffer (Unspecified)
system.caches.controllers2.mandatoryQueue.m_stall_time   806.952151                       # Average number of cycles messages are stalled in this MB (Unspecified)
system.caches.controllers2.power_state.pwrStateResidencyTicks::UNDEFINED  40559359000                       # Cumulative time (in ticks) in various power states (Tick)
system.caches.controllers2.requestToL1.m_buf_msgs     0.006076                       # Average number of messages in buffer (Unspecified)
system.caches.controllers2.requestToL1.m_stall_time   806.952127                       # Average number of cycles messages are stalled in this MB (Unspecified)
system.caches.controllers2.responseFromL1.m_buf_msgs     0.005227                       # Average number of messages in buffer (Unspecified)
system.caches.controllers2.responseFromL1.m_stall_time  4034.744731                       # Average number of cycles messages are stalled in this MB (Unspecified)
system.caches.controllers2.responseToL1.m_buf_msgs     0.000101                       # Average number of messages in buffer (Unspecified)
system.caches.controllers2.responseToL1.m_stall_time   806.639622                       # Average number of cycles messages are stalled in this MB (Unspecified)
system.caches.controllers2.xyzStatsObject.power_state.pwrStateResidencyTicks::UNDEFINED  40559359000                       # Cumulative time (in ticks) in various power states (Tick)
system.caches.controllers3.DCache.m_demand_hits            0                       # Number of cache demand hits (Unspecified)
system.caches.controllers3.DCache.m_demand_misses            0                       # Number of cache demand misses (Unspecified)
system.caches.controllers3.DCache.m_demand_accesses            0                       # Number of cache demand accesses (Unspecified)
system.caches.controllers3.ICache.m_demand_hits            0                       # Number of cache demand hits (Unspecified)
system.caches.controllers3.ICache.m_demand_misses            0                       # Number of cache demand misses (Unspecified)
system.caches.controllers3.ICache.m_demand_accesses            0                       # Number of cache demand accesses (Unspecified)
system.caches.controllers3.forwardFromL1.m_buf_msgs     4.728625                       # Average number of messages in buffer (Unspecified)
system.caches.controllers3.forwardFromL1.m_stall_time  4028.833937                       # Average number of cycles messages are stalled in this MB (Unspecified)
system.caches.controllers3.forwardFromL1.m_stall_count            1                       # Number of times messages were stalled (Unspecified)
system.caches.controllers3.mandatoryQueue.m_buf_msgs     0.208761                       # Average number of messages in buffer (Unspecified)
system.caches.controllers3.mandatoryQueue.m_stall_time   805.534624                       # Average number of cycles messages are stalled in this MB (Unspecified)
system.caches.controllers3.power_state.pwrStateResidencyTicks::UNDEFINED  40559359000                       # Cumulative time (in ticks) in various power states (Tick)
system.caches.controllers3.requestToL1.m_buf_msgs     0.005298                       # Average number of messages in buffer (Unspecified)
system.caches.controllers3.requestToL1.m_stall_time   805.534599                       # Average number of cycles messages are stalled in this MB (Unspecified)
system.caches.controllers3.responseFromL1.m_buf_msgs     0.004496                       # Average number of messages in buffer (Unspecified)
system.caches.controllers3.responseFromL1.m_stall_time  4027.627138                       # Average number of cycles messages are stalled in this MB (Unspecified)
system.caches.controllers3.responseToL1.m_buf_msgs     0.000113                       # Average number of messages in buffer (Unspecified)
system.caches.controllers3.responseToL1.m_stall_time   804.754335                       # Average number of cycles messages are stalled in this MB (Unspecified)
system.caches.controllers3.xyzStatsObject.power_state.pwrStateResidencyTicks::UNDEFINED  40559359000                       # Cumulative time (in ticks) in various power states (Tick)
system.caches.controllers4.cacheMemory.m_demand_hits            0                       # Number of cache demand hits (Unspecified)
system.caches.controllers4.cacheMemory.m_demand_misses            0                       # Number of cache demand misses (Unspecified)
system.caches.controllers4.cacheMemory.m_demand_accesses            0                       # Number of cache demand accesses (Unspecified)
system.caches.controllers4.forwardFromDir.m_buf_msgs     0.003311                       # Average number of messages in buffer (Unspecified)
system.caches.controllers4.forwardFromDir.m_stall_time  5973.660506                       # Average number of cycles messages are stalled in this MB (Unspecified)
system.caches.controllers4.forwardFromDir.m_stall_count         3024                       # Number of times messages were stalled (Unspecified)
system.caches.controllers4.forwardToL0.m_buf_msgs     0.002189                       # Average number of messages in buffer (Unspecified)
system.caches.controllers4.forwardToL0.m_stall_time   999.778473                       # Average number of cycles messages are stalled in this MB (Unspecified)
system.caches.controllers4.power_state.pwrStateResidencyTicks::UNDEFINED  40559359000                       # Cumulative time (in ticks) in various power states (Tick)
system.caches.controllers4.requestFromL0.m_buf_msgs     0.056553                       # Average number of messages in buffer (Unspecified)
system.caches.controllers4.requestFromL0.m_stall_time 18736.975971                       # Average number of cycles messages are stalled in this MB (Unspecified)
system.caches.controllers4.requestFromL0.m_stall_count       104850                       # Number of times messages were stalled (Unspecified)
system.caches.controllers4.requestToDir.m_buf_msgs     0.005284                       # Average number of messages in buffer (Unspecified)
system.caches.controllers4.requestToDir.m_stall_time   999.999827                       # Average number of cycles messages are stalled in this MB (Unspecified)
system.caches.controllers4.responseFromDirOrSibling.m_buf_msgs     0.002812                       # Average number of messages in buffer (Unspecified)
system.caches.controllers4.responseFromDirOrSibling.m_stall_time 12645.972413                       # Average number of cycles messages are stalled in this MB (Unspecified)
system.caches.controllers4.responseFromL0.m_buf_msgs     0.000175                       # Average number of messages in buffer (Unspecified)
system.caches.controllers4.responseFromL0.m_stall_time  4998.128323                       # Average number of cycles messages are stalled in this MB (Unspecified)
system.caches.controllers4.responseToDirOrSibling.m_buf_msgs     0.000092                       # Average number of messages in buffer (Unspecified)
system.caches.controllers4.responseToDirOrSibling.m_stall_time   808.267927                       # Average number of cycles messages are stalled in this MB (Unspecified)
system.caches.controllers4.responseToL0.m_buf_msgs     0.005702                       # Average number of messages in buffer (Unspecified)
system.caches.controllers4.responseToL0.m_stall_time   999.996869                       # Average number of cycles messages are stalled in this MB (Unspecified)
system.caches.controllers4.xyzStatsObject.power_state.pwrStateResidencyTicks::UNDEFINED  40559359000                       # Cumulative time (in ticks) in various power states (Tick)
system.caches.controllers5.cacheMemory.m_demand_hits            0                       # Number of cache demand hits (Unspecified)
system.caches.controllers5.cacheMemory.m_demand_misses            0                       # Number of cache demand misses (Unspecified)
system.caches.controllers5.cacheMemory.m_demand_accesses            0                       # Number of cache demand accesses (Unspecified)
system.caches.controllers5.forwardFromDir.m_buf_msgs     0.002203                       # Average number of messages in buffer (Unspecified)
system.caches.controllers5.forwardFromDir.m_stall_time  5246.557126                       # Average number of cycles messages are stalled in this MB (Unspecified)
system.caches.controllers5.forwardFromDir.m_stall_count         2483                       # Number of times messages were stalled (Unspecified)
system.caches.controllers5.forwardToL0.m_buf_msgs     0.001351                       # Average number of messages in buffer (Unspecified)
system.caches.controllers5.forwardToL0.m_stall_time   808.014076                       # Average number of cycles messages are stalled in this MB (Unspecified)
system.caches.controllers5.power_state.pwrStateResidencyTicks::UNDEFINED  40559359000                       # Cumulative time (in ticks) in various power states (Tick)
system.caches.controllers5.requestFromL0.m_buf_msgs     0.045235                       # Average number of messages in buffer (Unspecified)
system.caches.controllers5.requestFromL0.m_stall_time 17135.897291                       # Average number of cycles messages are stalled in this MB (Unspecified)
system.caches.controllers5.requestFromL0.m_stall_count        63525                       # Number of times messages were stalled (Unspecified)
system.caches.controllers5.requestToDir.m_buf_msgs     0.003271                       # Average number of messages in buffer (Unspecified)
system.caches.controllers5.requestToDir.m_stall_time   808.271428                       # Average number of cycles messages are stalled in this MB (Unspecified)
system.caches.controllers5.responseFromDirOrSibling.m_buf_msgs     0.001752                       # Average number of messages in buffer (Unspecified)
system.caches.controllers5.responseFromDirOrSibling.m_stall_time 10237.029929                       # Average number of cycles messages are stalled in this MB (Unspecified)
system.caches.controllers5.responseFromL0.m_buf_msgs     0.000099                       # Average number of messages in buffer (Unspecified)
system.caches.controllers5.responseFromL0.m_stall_time  4037.189542                       # Average number of cycles messages are stalled in this MB (Unspecified)
system.caches.controllers5.responseToDirOrSibling.m_buf_msgs     0.000075                       # Average number of messages in buffer (Unspecified)
system.caches.controllers5.responseToDirOrSibling.m_stall_time   806.846947                       # Average number of cycles messages are stalled in this MB (Unspecified)
system.caches.controllers5.responseToL0.m_buf_msgs     0.003707                       # Average number of messages in buffer (Unspecified)
system.caches.controllers5.responseToL0.m_stall_time   808.270984                       # Average number of cycles messages are stalled in this MB (Unspecified)
system.caches.controllers5.xyzStatsObject.power_state.pwrStateResidencyTicks::UNDEFINED  40559359000                       # Cumulative time (in ticks) in various power states (Tick)
system.caches.controllers6.cacheMemory.m_demand_hits            0                       # Number of cache demand hits (Unspecified)
system.caches.controllers6.cacheMemory.m_demand_misses            0                       # Number of cache demand misses (Unspecified)
system.caches.controllers6.cacheMemory.m_demand_accesses            0                       # Number of cache demand accesses (Unspecified)
system.caches.controllers6.forwardFromDir.m_buf_msgs     0.002727                       # Average number of messages in buffer (Unspecified)
system.caches.controllers6.forwardFromDir.m_stall_time  4940.136381                       # Average number of cycles messages are stalled in this MB (Unspecified)
system.caches.controllers6.forwardFromDir.m_stall_count         1853                       # Number of times messages were stalled (Unspecified)
system.caches.controllers6.forwardToL0.m_buf_msgs     0.001963                       # Average number of messages in buffer (Unspecified)
system.caches.controllers6.forwardToL0.m_stall_time   806.733361                       # Average number of cycles messages are stalled in this MB (Unspecified)
system.caches.controllers6.power_state.pwrStateResidencyTicks::UNDEFINED  40559359000                       # Cumulative time (in ticks) in various power states (Tick)
system.caches.controllers6.requestFromL0.m_buf_msgs     0.055250                       # Average number of messages in buffer (Unspecified)
system.caches.controllers6.requestFromL0.m_stall_time 22203.700017                       # Average number of cycles messages are stalled in this MB (Unspecified)
system.caches.controllers6.requestFromL0.m_stall_count        92260                       # Number of times messages were stalled (Unspecified)
system.caches.controllers6.requestToDir.m_buf_msgs     0.004679                       # Average number of messages in buffer (Unspecified)
system.caches.controllers6.requestToDir.m_stall_time   806.952003                       # Average number of cycles messages are stalled in this MB (Unspecified)
system.caches.controllers6.responseFromDirOrSibling.m_buf_msgs     0.002468                       # Average number of messages in buffer (Unspecified)
system.caches.controllers6.responseFromDirOrSibling.m_stall_time 10245.010825                       # Average number of cycles messages are stalled in this MB (Unspecified)
system.caches.controllers6.responseFromL0.m_buf_msgs     0.000101                       # Average number of messages in buffer (Unspecified)
system.caches.controllers6.responseFromL0.m_stall_time  4033.197615                       # Average number of cycles messages are stalled in this MB (Unspecified)
system.caches.controllers6.responseToDirOrSibling.m_buf_msgs     0.000061                       # Average number of messages in buffer (Unspecified)
system.caches.controllers6.responseToDirOrSibling.m_stall_time   806.639498                       # Average number of cycles messages are stalled in this MB (Unspecified)
system.caches.controllers6.responseToL0.m_buf_msgs     0.005227                       # Average number of messages in buffer (Unspecified)
system.caches.controllers6.responseToL0.m_stall_time   806.949045                       # Average number of cycles messages are stalled in this MB (Unspecified)
system.caches.controllers6.xyzStatsObject.power_state.pwrStateResidencyTicks::UNDEFINED  40559359000                       # Cumulative time (in ticks) in various power states (Tick)
system.caches.controllers7.cacheMemory.m_demand_hits            0                       # Number of cache demand hits (Unspecified)
system.caches.controllers7.cacheMemory.m_demand_misses            0                       # Number of cache demand misses (Unspecified)
system.caches.controllers7.cacheMemory.m_demand_accesses            0                       # Number of cache demand accesses (Unspecified)
system.caches.controllers7.forwardFromDir.m_buf_msgs     0.002545                       # Average number of messages in buffer (Unspecified)
system.caches.controllers7.forwardFromDir.m_stall_time  4718.744988                       # Average number of cycles messages are stalled in this MB (Unspecified)
system.caches.controllers7.forwardFromDir.m_stall_count         2131                       # Number of times messages were stalled (Unspecified)
system.caches.controllers7.forwardToL0.m_buf_msgs     0.001702                       # Average number of messages in buffer (Unspecified)
system.caches.controllers7.forwardToL0.m_stall_time   805.234521                       # Average number of cycles messages are stalled in this MB (Unspecified)
system.caches.controllers7.power_state.pwrStateResidencyTicks::UNDEFINED  40559359000                       # Cumulative time (in ticks) in various power states (Tick)
system.caches.controllers7.requestFromL0.m_buf_msgs     0.052229                       # Average number of messages in buffer (Unspecified)
system.caches.controllers7.requestFromL0.m_stall_time 17950.001256                       # Average number of cycles messages are stalled in this MB (Unspecified)
system.caches.controllers7.requestFromL0.m_stall_count        82128                       # Number of times messages were stalled (Unspecified)
system.caches.controllers7.requestToDir.m_buf_msgs     0.004193                       # Average number of messages in buffer (Unspecified)
system.caches.controllers7.requestToDir.m_stall_time   805.534476                       # Average number of cycles messages are stalled in this MB (Unspecified)
system.caches.controllers7.responseFromDirOrSibling.m_buf_msgs     0.002239                       # Average number of messages in buffer (Unspecified)
system.caches.controllers7.responseFromDirOrSibling.m_stall_time 10309.703662                       # Average number of cycles messages are stalled in this MB (Unspecified)
system.caches.controllers7.responseFromL0.m_buf_msgs     0.000113                       # Average number of messages in buffer (Unspecified)
system.caches.controllers7.responseFromL0.m_stall_time  4023.846753                       # Average number of cycles messages are stalled in this MB (Unspecified)
system.caches.controllers7.responseToDirOrSibling.m_buf_msgs     0.000069                       # Average number of messages in buffer (Unspecified)
system.caches.controllers7.responseToDirOrSibling.m_stall_time   804.340424                       # Average number of cycles messages are stalled in this MB (Unspecified)
system.caches.controllers7.responseToL0.m_buf_msgs     0.004496                       # Average number of messages in buffer (Unspecified)
system.caches.controllers7.responseToL0.m_stall_time   805.525526                       # Average number of cycles messages are stalled in this MB (Unspecified)
system.caches.controllers7.xyzStatsObject.power_state.pwrStateResidencyTicks::UNDEFINED  40559359000                       # Cumulative time (in ticks) in various power states (Tick)
system.caches.controllers8.cacheMemory.m_demand_hits            0                       # Number of cache demand hits (Unspecified)
system.caches.controllers8.cacheMemory.m_demand_misses            0                       # Number of cache demand misses (Unspecified)
system.caches.controllers8.cacheMemory.m_demand_accesses            0                       # Number of cache demand accesses (Unspecified)
system.caches.controllers8.forwardToCache.m_buf_msgs     0.009234                       # Average number of messages in buffer (Unspecified)
system.caches.controllers8.forwardToCache.m_stall_time   999.899850                       # Average number of cycles messages are stalled in this MB (Unspecified)
system.caches.controllers8.power_state.pwrStateResidencyTicks::UNDEFINED  40559359000                       # Cumulative time (in ticks) in various power states (Tick)
system.caches.controllers8.requestFromCache.m_not_avail_count       118986                       # Number of times this buffer did not have N slots available (Unspecified)
system.caches.controllers8.requestFromCache.m_buf_msgs     0.017427                       # Average number of messages in buffer (Unspecified)
system.caches.controllers8.requestFromCache.m_stall_time 43069.369466                       # Average number of cycles messages are stalled in this MB (Unspecified)
system.caches.controllers8.requestFromCache.m_occupancy     0.017427                       # Average occupancy of buffer capacity (Unspecified)
system.caches.controllers8.requestToMemory.m_buf_msgs     0.002119                       # Average number of messages in buffer (Unspecified)
system.caches.controllers8.requestToMemory.m_stall_time   999.999704                       # Average number of cycles messages are stalled in this MB (Unspecified)
system.caches.controllers8.responseFromMemory.m_buf_msgs     0.002119                       # Average number of messages in buffer (Unspecified)
system.caches.controllers8.responseFromMemory.m_stall_time   999.997214                       # Average number of cycles messages are stalled in this MB (Unspecified)
system.caches.controllers8.responseToCache.m_buf_msgs     0.080764                       # Average number of messages in buffer (Unspecified)
system.caches.controllers8.responseToCache.m_stall_time  8999.972929                       # Average number of cycles messages are stalled in this MB (Unspecified)
system.caches.controllers8.xyzCacheMemory.m_demand_hits            0                       # Number of cache demand hits (Unspecified)
system.caches.controllers8.xyzCacheMemory.m_demand_misses            0                       # Number of cache demand misses (Unspecified)
system.caches.controllers8.xyzCacheMemory.m_demand_accesses            0                       # Number of cache demand accesses (Unspecified)
system.caches.controllers8.xyzStatsObject.power_state.pwrStateResidencyTicks::UNDEFINED  40559359000                       # Cumulative time (in ticks) in various power states (Tick)
system.caches.network.msg_count.Control       4119118                       (Unspecified)
system.caches.network.msg_byte.Control       32952944                       (Unspecified)
system.caches.network.msg_count.Data          2058640                       (Unspecified)
system.caches.network.msg_byte.Data         148222080                       (Unspecified)
system.caches.network.msg_count.Response_Data       655688                       (Unspecified)
system.caches.network.msg_byte.Response_Data     47209536                       (Unspecified)
system.caches.network.int_link_buffers102.m_buf_msgs     0.001963                       # Average number of messages in buffer (Unspecified)
system.caches.network.int_link_buffers102.m_stall_time  2420.859980                       # Average number of cycles messages are stalled in this MB (Unspecified)
system.caches.network.int_link_buffers103.m_buf_msgs     0.005227                       # Average number of messages in buffer (Unspecified)
system.caches.network.int_link_buffers103.m_stall_time  2420.846986                       # Average number of cycles messages are stalled in this MB (Unspecified)
[...]
system.caches.controllers2.xyzStatsObjectlatency::underflows            0      0.00%      0.00% # Mem access latency (Unspecified)
system.caches.controllers2.xyzStatsObjectlatency::0-49999       211999    100.00%    100.00% # Mem access latency (Unspecified)
system.caches.controllers2.xyzStatsObjectlatency::50000-99999            0      0.00%    100.00% # Mem access latency (Unspecified)
system.caches.controllers2.xyzStatsObjectlatency::100000            0      0.00%    100.00% # Mem access latency (Unspecified)
system.caches.controllers2.xyzStatsObjectlatency::overflows            0      0.00%    100.00% # Mem access latency (Unspecified)
system.caches.controllers2.xyzStatsObjectlatency::min_value           10                       # Mem access latency (Unspecified)
system.caches.controllers2.xyzStatsObjectlatency::max_value         1080                       # Mem access latency (Unspecified)
system.caches.controllers2.xyzStatsObjectlatency::total       211999                       # Mem access latency (Unspecified)
system.caches.controllers3.xyzStatsObject.total_put            0                       # Total number of put (PutM + PutS) (Unspecified)
system.caches.controllers3.xyzStatsObject.total_put_as_wt            0                       # Total number of put as write through (Unspecified)
system.caches.controllers3.xyzStatsObject.total_putm            0                       # Total number of PutM (Unspecified)
system.caches.controllers3.xyzStatsObject.total_putm_as_wt            0                       # Total number of PutM as write through (Unspecified)
system.caches.controllers3.xyzStatsObject.total_puts            0                       # Total number of PutS (Unspecified)
system.caches.controllers3.xyzStatsObject.total_puts_as_wt            0                       # Total number of PutS as write through (Unspecified)
system.caches.controllers3.xyzStatsObject.total_repl            0                       # Total Replacement (Unspecified)
system.caches.controllers3.xyzStatsObject.total_repl_llc            0                       # Total Replacement of LLC line (Unspecified)
system.caches.controllers3.xyzStatsObject.total_repl_owned            0                       # Total Replacement of owned line (Unspecified)
system.caches.controllers3.xyzStatsObject.total_repl_shared            0                       # Total Replacement of shared line (Unspecified)
system.caches.controllers3.xyzStatsObject.wt_putRatio          nan                       # WT / Put (Unspecified)
system.caches.controllers3.xyzStatsObject.wt_putmRatio          nan                       # PutM WT / PutM (Unspecified)
system.caches.controllers3.xyzStatsObject.wt_putsRatio          nan                       # PutS WT / PutS (Unspecified)
system.caches.controllers3.xyzStatsObjectlatency::samples       182338                       # Mem access latency (Unspecified)
system.caches.controllers3.xyzStatsObjectlatency::mean    48.515499                       # Mem access latency (Unspecified)
system.caches.controllers3.xyzStatsObjectlatency::stdev    94.966672                       # Mem access latency (Unspecified)
system.caches.controllers3.xyzStatsObjectlatency::underflows            0      0.00%      0.00% # Mem access latency (Unspecified)
system.caches.controllers3.xyzStatsObjectlatency::0-49999       182338    100.00%    100.00% # Mem access latency (Unspecified)
system.caches.controllers3.xyzStatsObjectlatency::50000-99999            0      0.00%    100.00% # Mem access latency (Unspecified)
system.caches.controllers3.xyzStatsObjectlatency::100000            0      0.00%    100.00% # Mem access latency (Unspecified)
system.caches.controllers3.xyzStatsObjectlatency::overflows            0      0.00%    100.00% # Mem access latency (Unspecified)
system.caches.controllers3.xyzStatsObjectlatency::min_value           10                       # Mem access latency (Unspecified)
system.caches.controllers3.xyzStatsObjectlatency::max_value         1071                       # Mem access latency (Unspecified)
system.caches.controllers3.xyzStatsObjectlatency::total       182338                       # Mem access latency (Unspecified)
system.caches.controllers4.xyzStatsObject.total_put            0                       # Total number of put (PutM + PutS) (Unspecified)
system.caches.controllers4.xyzStatsObject.total_put_as_wt            0                       # Total number of put as write through (Unspecified)
system.caches.controllers4.xyzStatsObject.total_putm            0                       # Total number of PutM (Unspecified)
system.caches.controllers4.xyzStatsObject.total_putm_as_wt            0                       # Total number of PutM as write through (Unspecified)
system.caches.controllers4.xyzStatsObject.total_puts            0                       # Total number of PutS (Unspecified)
system.caches.controllers4.xyzStatsObject.total_puts_as_wt            0                       # Total number of PutS as write through (Unspecified)
system.caches.controllers4.xyzStatsObject.total_repl            0                       # Total Replacement (Unspecified)
system.caches.controllers4.xyzStatsObject.total_repl_llc            0                       # Total Replacement of LLC line (Unspecified)
system.caches.controllers4.xyzStatsObject.total_repl_owned            0                       # Total Replacement of owned line (Unspecified)
system.caches.controllers4.xyzStatsObject.total_repl_shared            0                       # Total Replacement of shared line (Unspecified)
system.caches.controllers4.xyzStatsObject.wt_putRatio          nan                       # WT / Put (Unspecified)
system.caches.controllers4.xyzStatsObject.wt_putmRatio          nan                       # PutM WT / PutM (Unspecified)
system.caches.controllers4.xyzStatsObject.wt_putsRatio          nan                       # PutS WT / PutS (Unspecified)
system.caches.controllers4.xyzStatsObjectlatency::samples       113831                       # Mem access latency (Unspecified)
system.caches.controllers4.xyzStatsObjectlatency::mean    92.011464                       # Mem access latency (Unspecified)
system.caches.controllers4.xyzStatsObjectlatency::stdev   117.517267                       # Mem access latency (Unspecified)
system.caches.controllers4.xyzStatsObjectlatency::underflows            0      0.00%      0.00% # Mem access latency (Unspecified)
system.caches.controllers4.xyzStatsObjectlatency::0-49999       113831    100.00%    100.00% # Mem access latency (Unspecified)
system.caches.controllers4.xyzStatsObjectlatency::50000-99999            0      0.00%    100.00% # Mem access latency (Unspecified)
system.caches.controllers4.xyzStatsObjectlatency::100000            0      0.00%    100.00% # Mem access latency (Unspecified)
system.caches.controllers4.xyzStatsObjectlatency::overflows            0      0.00%    100.00% # Mem access latency (Unspecified)
system.caches.controllers4.xyzStatsObjectlatency::min_value           15                       # Mem access latency (Unspecified)
system.caches.controllers4.xyzStatsObjectlatency::max_value          728                       # Mem access latency (Unspecified)
system.caches.controllers4.xyzStatsObjectlatency::total       113831                       # Mem access latency (Unspecified)
system.caches.controllers5.xyzStatsObject.total_put            0                       # Total number of put (PutM + PutS) (Unspecified)
system.caches.controllers5.xyzStatsObject.total_put_as_wt            0                       # Total number of put as write through (Unspecified)
system.caches.controllers5.xyzStatsObject.total_putm            0                       # Total number of PutM (Unspecified)
system.caches.controllers5.xyzStatsObject.total_putm_as_wt            0                       # Total number of PutM as write through (Unspecified)
system.caches.controllers5.xyzStatsObject.total_puts            0                       # Total number of PutS (Unspecified)
system.caches.controllers5.xyzStatsObject.total_puts_as_wt            0                       # Total number of PutS as write through (Unspecified)
system.caches.controllers5.xyzStatsObject.total_repl            0                       # Total Replacement (Unspecified)
system.caches.controllers5.xyzStatsObject.total_repl_llc            0                       # Total Replacement of LLC line (Unspecified)
system.caches.controllers5.xyzStatsObject.total_repl_owned            0                       # Total Replacement of owned line (Unspecified)
system.caches.controllers5.xyzStatsObject.total_repl_shared            0                       # Total Replacement of shared line (Unspecified)
system.caches.controllers5.xyzStatsObject.wt_putRatio          nan                       # WT / Put (Unspecified)
system.caches.controllers5.xyzStatsObject.wt_putmRatio          nan                       # PutM WT / PutM (Unspecified)
system.caches.controllers5.xyzStatsObject.wt_putsRatio          nan                       # PutS WT / PutS (Unspecified)
system.caches.controllers5.xyzStatsObjectlatency::samples        70958                       # Mem access latency (Unspecified)
system.caches.controllers5.xyzStatsObjectlatency::mean    54.655839                       # Mem access latency (Unspecified)
system.caches.controllers5.xyzStatsObjectlatency::stdev    97.416227                       # Mem access latency (Unspecified)
system.caches.controllers5.xyzStatsObjectlatency::underflows            0      0.00%      0.00% # Mem access latency (Unspecified)
system.caches.controllers5.xyzStatsObjectlatency::0-49999        70958    100.00%    100.00% # Mem access latency (Unspecified)
system.caches.controllers5.xyzStatsObjectlatency::50000-99999            0      0.00%    100.00% # Mem access latency (Unspecified)
system.caches.controllers5.xyzStatsObjectlatency::100000            0      0.00%    100.00% # Mem access latency (Unspecified)
system.caches.controllers5.xyzStatsObjectlatency::overflows            0      0.00%    100.00% # Mem access latency (Unspecified)
system.caches.controllers5.xyzStatsObjectlatency::min_value           15                       # Mem access latency (Unspecified)
system.caches.controllers5.xyzStatsObjectlatency::max_value          729                       # Mem access latency (Unspecified)
system.caches.controllers5.xyzStatsObjectlatency::total        70958                       # Mem access latency (Unspecified)
system.caches.controllers6.xyzStatsObject.total_put            0                       # Total number of put (PutM + PutS) (Unspecified)
system.caches.controllers6.xyzStatsObject.total_put_as_wt            0                       # Total number of put as write through (Unspecified)
system.caches.controllers6.xyzStatsObject.total_putm            0                       # Total number of PutM (Unspecified)
system.caches.controllers6.xyzStatsObject.total_putm_as_wt            0                       # Total number of PutM as write through (Unspecified)
system.caches.controllers6.xyzStatsObject.total_puts            0                       # Total number of PutS (Unspecified)
system.caches.controllers6.xyzStatsObject.total_puts_as_wt            0                       # Total number of PutS as write through (Unspecified)
system.caches.controllers6.xyzStatsObject.total_repl            0                       # Total Replacement (Unspecified)
system.caches.controllers6.xyzStatsObject.total_repl_llc            0                       # Total Replacement of LLC line (Unspecified)
system.caches.controllers6.xyzStatsObject.total_repl_owned            0                       # Total Replacement of owned line (Unspecified)
system.caches.controllers6.xyzStatsObject.total_repl_shared            0                       # Total Replacement of shared line (Unspecified)
system.caches.controllers6.xyzStatsObject.wt_putRatio          nan                       # WT / Put (Unspecified)
system.caches.controllers6.xyzStatsObject.wt_putmRatio          nan                       # PutM WT / PutM (Unspecified)
system.caches.controllers6.xyzStatsObject.wt_putsRatio          nan                       # PutS WT / PutS (Unspecified)
system.caches.controllers6.xyzStatsObjectlatency::samples       100009                       # Mem access latency (Unspecified)
system.caches.controllers6.xyzStatsObjectlatency::mean    46.512424                       # Mem access latency (Unspecified)
system.caches.controllers6.xyzStatsObjectlatency::stdev    86.835397                       # Mem access latency (Unspecified)
system.caches.controllers6.xyzStatsObjectlatency::underflows            0      0.00%      0.00% # Mem access latency (Unspecified)
system.caches.controllers6.xyzStatsObjectlatency::0-49999       100009    100.00%    100.00% # Mem access latency (Unspecified)
system.caches.controllers6.xyzStatsObjectlatency::50000-99999            0      0.00%    100.00% # Mem access latency (Unspecified)
system.caches.controllers6.xyzStatsObjectlatency::100000            0      0.00%    100.00% # Mem access latency (Unspecified)
system.caches.controllers6.xyzStatsObjectlatency::overflows            0      0.00%    100.00% # Mem access latency (Unspecified)
system.caches.controllers6.xyzStatsObjectlatency::min_value           15                       # Mem access latency (Unspecified)
system.caches.controllers6.xyzStatsObjectlatency::max_value          732                       # Mem access latency (Unspecified)
system.caches.controllers6.xyzStatsObjectlatency::total       100009                       # Mem access latency (Unspecified)
system.caches.controllers7.xyzStatsObject.total_put            0                       # Total number of put (PutM + PutS) (Unspecified)
system.caches.controllers7.xyzStatsObject.total_put_as_wt            0                       # Total number of put as write through (Unspecified)
system.caches.controllers7.xyzStatsObject.total_putm            0                       # Total number of PutM (Unspecified)
system.caches.controllers7.xyzStatsObject.total_putm_as_wt            0                       # Total number of PutM as write through (Unspecified)
system.caches.controllers7.xyzStatsObject.total_puts            0                       # Total number of PutS (Unspecified)
system.caches.controllers7.xyzStatsObject.total_puts_as_wt            0                       # Total number of PutS as write through (Unspecified)
system.caches.controllers7.xyzStatsObject.total_repl            0                       # Total Replacement (Unspecified)
system.caches.controllers7.xyzStatsObject.total_repl_llc            0                       # Total Replacement of LLC line (Unspecified)
system.caches.controllers7.xyzStatsObject.total_repl_owned            0                       # Total Replacement of owned line (Unspecified)
system.caches.controllers7.xyzStatsObject.total_repl_shared            0                       # Total Replacement of shared line (Unspecified)
system.caches.controllers7.xyzStatsObject.wt_putRatio          nan                       # WT / Put (Unspecified)
system.caches.controllers7.xyzStatsObject.wt_putmRatio          nan                       # PutM WT / PutM (Unspecified)
system.caches.controllers7.xyzStatsObject.wt_putsRatio          nan                       # PutS WT / PutS (Unspecified)
system.caches.controllers7.xyzStatsObjectlatency::samples        90658                       # Mem access latency (Unspecified)
system.caches.controllers7.xyzStatsObjectlatency::mean    55.029120                       # Mem access latency (Unspecified)
system.caches.controllers7.xyzStatsObjectlatency::stdev    93.308329                       # Mem access latency (Unspecified)
system.caches.controllers7.xyzStatsObjectlatency::underflows            0      0.00%      0.00% # Mem access latency (Unspecified)
system.caches.controllers7.xyzStatsObjectlatency::0-49999        90658    100.00%    100.00% # Mem access latency (Unspecified)
system.caches.controllers7.xyzStatsObjectlatency::50000-99999            0      0.00%    100.00% # Mem access latency (Unspecified)
system.caches.controllers7.xyzStatsObjectlatency::100000            0      0.00%    100.00% # Mem access latency (Unspecified)
system.caches.controllers7.xyzStatsObjectlatency::overflows            0      0.00%    100.00% # Mem access latency (Unspecified)
system.caches.controllers7.xyzStatsObjectlatency::min_value           15                       # Mem access latency (Unspecified)
system.caches.controllers7.xyzStatsObjectlatency::max_value          732                       # Mem access latency (Unspecified)
system.caches.controllers7.xyzStatsObjectlatency::total        90658                       # Mem access latency (Unspecified)
system.caches.controllers8.xyzStatsObject.total_put       339380                       # Total number of put (PutM + PutS) (Unspecified)
system.caches.controllers8.xyzStatsObject.total_put_as_wt        49819                       # Total number of put as write through (Unspecified)
system.caches.controllers8.xyzStatsObject.total_putm        59493                       # Total number of PutM (Unspecified)
system.caches.controllers8.xyzStatsObject.total_putm_as_wt        13432                       # Total number of PutM as write through (Unspecified)
system.caches.controllers8.xyzStatsObject.total_puts       279887                       # Total number of PutS (Unspecified)
system.caches.controllers8.xyzStatsObject.total_puts_as_wt        36387                       # Total number of PutS as write through (Unspecified)
system.caches.controllers8.xyzStatsObject.total_repl            0                       # Total Replacement (Unspecified)
system.caches.controllers8.xyzStatsObject.total_repl_llc            0                       # Total Replacement of LLC line (Unspecified)
system.caches.controllers8.xyzStatsObject.total_repl_owned            0                       # Total Replacement of owned line (Unspecified)
system.caches.controllers8.xyzStatsObject.total_repl_shared            0                       # Total Replacement of shared line (Unspecified)
system.caches.controllers8.xyzStatsObject.wt_putRatio     0.146794                       # WT / Put (Unspecified)
system.caches.controllers8.xyzStatsObject.wt_putmRatio     0.225774                       # PutM WT / PutM (Unspecified)
system.caches.controllers8.xyzStatsObject.wt_putsRatio     0.130006                       # PutS WT / PutS (Unspecified)
system.caches.controllers8.xyzStatsObjectlatency::samples            0                       # Mem access latency (Unspecified)
system.caches.controllers8.xyzStatsObjectlatency::mean          nan                       # Mem access latency (Unspecified)
system.caches.controllers8.xyzStatsObjectlatency::stdev          nan                       # Mem access latency (Unspecified)
system.caches.controllers8.xyzStatsObjectlatency::underflows            0                       # Mem access latency (Unspecified)
system.caches.controllers8.xyzStatsObjectlatency::0-49999            0                       # Mem access latency (Unspecified)
system.caches.controllers8.xyzStatsObjectlatency::50000-99999            0                       # Mem access latency (Unspecified)
system.caches.controllers8.xyzStatsObjectlatency::100000            0                       # Mem access latency (Unspecified)
system.caches.controllers8.xyzStatsObjectlatency::overflows            0                       # Mem access latency (Unspecified)
system.caches.controllers8.xyzStatsObjectlatency::min_value            0                       # Mem access latency (Unspecified)
system.caches.controllers8.xyzStatsObjectlatency::max_value            0                       # Mem access latency (Unspecified)
system.caches.controllers8.xyzStatsObjectlatency::total            0                       # Mem access latency (Unspecified)

---------- End Simulation Statistics   ----------
