
---------- Begin Simulation Statistics ----------
simSeconds                                   0.041655                       # Number of seconds simulated (Second)
simTicks                                  41655295000                       # Number of ticks simulated (Tick)
finalTick                                 41655295000                       # Number of ticks from beginning of simulation (restored from checkpoints and never reset) (Tick)
simFreq                                  1000000000000                       # The number of ticks per simulated second ((Tick/Second))
hostSeconds                                     29.59                       # Real time elapsed on the host (Second)
hostTickRate                               1407696537                       # The number of ticks simulated per host second (ticks/s) ((Tick/Second))
hostMemory                                    4955596                       # Number of bytes of host memory used (Byte)
simInsts                                     20709994                       # Number of instructions simulated (Count)
simOps                                       33225246                       # Number of ops (including micro ops) simulated (Count)
hostInstRate                                   699853                       # Simulator instruction rate (inst/s) ((Count/Second))
hostOpRate                                    1122775                       # Simulator op (including micro ops) rate (op/s) ((Count/Second))
system.caches.m_outstandReqHistSeqr::bucket_size            1                       (Unspecified)
system.caches.m_outstandReqHistSeqr::max_bucket            9                       (Unspecified)
system.caches.m_outstandReqHistSeqr::samples     32287792                       (Unspecified)
system.caches.m_outstandReqHistSeqr::mean            1                       (Unspecified)
system.caches.m_outstandReqHistSeqr::gmean            1                       (Unspecified)
system.caches.m_outstandReqHistSeqr      |           0      0.00%      0.00% |    32287792    100.00%    100.00% |           0      0.00%    100.00% |           0      0.00%    100.00% |           0      0.00%    100.00% |           0      0.00%    100.00% |           0      0.00%    100.00% |           0      0.00%    100.00% |           0      0.00%    100.00% |           0      0.00%    100.00% (Unspecified)
system.caches.m_outstandReqHistSeqr::total     32287792                       (Unspecified)
system.caches.m_latencyHistSeqr::bucket_size          128                       (Unspecified)
system.caches.m_latencyHistSeqr::max_bucket         1279                       (Unspecified)
system.caches.m_latencyHistSeqr::samples     32287792                       (Unspecified)
system.caches.m_latencyHistSeqr::mean        2.335671                       (Unspecified)
system.caches.m_latencyHistSeqr::gmean       1.082241                       (Unspecified)
system.caches.m_latencyHistSeqr::stdev      18.230176                       (Unspecified)
system.caches.m_latencyHistSeqr          |    32195244     99.71%     99.71% |       48026      0.15%     99.86% |       28434      0.09%     99.95% |        8133      0.03%     99.98% |        3954      0.01%     99.99% |        1712      0.01%     99.99% |        1206      0.00%    100.00% |        1064      0.00%    100.00% |          19      0.00%    100.00% |           0      0.00%    100.00% (Unspecified)
system.caches.m_latencyHistSeqr::total       32287792                       (Unspecified)
system.caches.m_hitLatencyHistSeqr::bucket_size            1                       (Unspecified)
system.caches.m_hitLatencyHistSeqr::max_bucket            9                       (Unspecified)
system.caches.m_hitLatencyHistSeqr::samples     31512033                       (Unspecified)
system.caches.m_hitLatencyHistSeqr::mean            1                       (Unspecified)
system.caches.m_hitLatencyHistSeqr::gmean            1                       (Unspecified)
system.caches.m_hitLatencyHistSeqr       |           0      0.00%      0.00% |    31512033    100.00%    100.00% |           0      0.00%    100.00% |           0      0.00%    100.00% |           0      0.00%    100.00% |           0      0.00%    100.00% |           0      0.00%    100.00% |           0      0.00%    100.00% |           0      0.00%    100.00% |           0      0.00%    100.00% (Unspecified)
system.caches.m_hitLatencyHistSeqr::total     31512033                       (Unspecified)
system.caches.m_missLatencyHistSeqr::bucket_size          128                       (Unspecified)
system.caches.m_missLatencyHistSeqr::max_bucket         1279                       (Unspecified)
system.caches.m_missLatencyHistSeqr::samples       775759                       (Unspecified)
system.caches.m_missLatencyHistSeqr::mean    56.591831                       (Unspecified)
system.caches.m_missLatencyHistSeqr::gmean    26.828113                       (Unspecified)
system.caches.m_missLatencyHistSeqr::stdev   104.000373                       (Unspecified)
system.caches.m_missLatencyHistSeqr      |      683211     88.07%     88.07% |       48026      6.19%     94.26% |       28434      3.67%     97.93% |        8133      1.05%     98.97% |        3954      0.51%     99.48% |        1712      0.22%     99.70% |        1206      0.16%     99.86% |        1064      0.14%    100.00% |          19      0.00%    100.00% |           0      0.00%    100.00% (Unspecified)
system.caches.m_missLatencyHistSeqr::total       775759                       (Unspecified)
system.caches.L0Cache_Controller.Load    |      884526     28.07%     28.07% |      636342     20.19%     48.26% |      821564     26.07%     74.33% |      808863     25.67%    100.00% (Unspecified)
system.caches.L0Cache_Controller.Load::total      3151295                       (Unspecified)
system.caches.L0Cache_Controller.Ifetch  |     7721406     27.29%     27.29% |     5856286     20.69%     47.98% |     7300000     25.80%     73.78% |     7420915     26.22%    100.00% (Unspecified)
system.caches.L0Cache_Controller.Ifetch::total     28298607                       (Unspecified)
system.caches.L0Cache_Controller.Store   |      264815     31.60%     31.60% |      168508     20.11%     51.72% |      166657     19.89%     71.61% |      237910     28.39%    100.00% (Unspecified)
system.caches.L0Cache_Controller.Store::total       837890                       (Unspecified)
system.caches.L0Cache_Controller.Replacement |      191524     29.75%     29.75% |      125359     19.47%     49.22% |      177852     27.62%     76.84% |      149106     23.16%    100.00% (Unspecified)
system.caches.L0Cache_Controller.Replacement::total       643841                       (Unspecified)
system.caches.L0Cache_Controller.Inv     |       88652     30.35%     30.35% |       54770     18.75%     49.10% |       79613     27.25%     76.35% |       69076     23.65%    100.00% (Unspecified)
system.caches.L0Cache_Controller.Inv::total       292111                       (Unspecified)
system.caches.L0Cache_Controller.Data    |      213739     30.39%     30.39% |      134713     19.16%     49.55% |      190837     27.14%     76.69% |      163940     23.31%    100.00% (Unspecified)
system.caches.L0Cache_Controller.Data::total       703229                       (Unspecified)
system.caches.L0Cache_Controller.ExData  |       17431     24.03%     24.03% |       15563     21.46%     45.49% |       21123     29.12%     74.61% |       18413     25.39%    100.00% (Unspecified)
system.caches.L0Cache_Controller.ExData::total        72530                       (Unspecified)
system.caches.L0Cache_Controller.I.Load  |      162479     27.38%     27.38% |      119463     20.13%     47.52% |      171217     28.86%     76.38% |      140160     23.62%    100.00% (Unspecified)
system.caches.L0Cache_Controller.I.Load::total       593319                       (Unspecified)
system.caches.L0Cache_Controller.I.Ifetch |       44947     41.35%     41.35% |       16956     15.60%     56.95% |       23314     21.45%     78.39% |       23487     21.61%    100.00% (Unspecified)
system.caches.L0Cache_Controller.I.Ifetch::total       108704                       (Unspecified)
system.caches.L0Cache_Controller.I.Store |       14867     33.25%     33.25% |        8223     18.39%     51.64% |       10662     23.85%     75.49% |       10960     24.51%    100.00% (Unspecified)
system.caches.L0Cache_Controller.I.Store::total        44712                       (Unspecified)
system.caches.L0Cache_Controller.I.Inv   |       57942     30.58%     30.58% |       35545     18.76%     49.35% |       52329     27.62%     76.97% |       43634     23.03%    100.00% (Unspecified)
system.caches.L0Cache_Controller.I.Inv::total       189450                       (Unspecified)
system.caches.L0Cache_Controller.IS_D.Data |      189995     30.18%     30.18% |      120856     19.20%     49.38% |      173408     27.55%     76.93% |      145234     23.07%    100.00% (Unspecified)
system.caches.L0Cache_Controller.IS_D.Data::total       629493                       (Unspecified)
system.caches.L0Cache_Controller.IS_D.ExData |       17431     24.03%     24.03% |       15563     21.46%     45.49% |       21123     29.12%     74.61% |       18413     25.39%    100.00% (Unspecified)
system.caches.L0Cache_Controller.IS_D.ExData::total        72530                       (Unspecified)
system.caches.L0Cache_Controller.IM_D.Inv |           1     50.00%     50.00% |           0      0.00%     50.00% |           1     50.00%    100.00% |           0      0.00%    100.00% (Unspecified)
system.caches.L0Cache_Controller.IM_D.Inv::total            2                       (Unspecified)
system.caches.L0Cache_Controller.IM_D.Data |       23744     32.20%     32.20% |       13857     18.79%     50.99% |       17429     23.64%     74.63% |       18706     25.37%    100.00% (Unspecified)
system.caches.L0Cache_Controller.IM_D.Data::total        73736                       (Unspecified)
system.caches.L0Cache_Controller.S.Load  |      395428     28.46%     28.46% |      278388     20.04%     48.50% |      359218     25.86%     74.36% |      356169     25.64%    100.00% (Unspecified)
system.caches.L0Cache_Controller.S.Load::total      1389203                       (Unspecified)
system.caches.L0Cache_Controller.S.Ifetch |     7676459     27.23%     27.23% |     5839330     20.71%     47.95% |     7276686     25.81%     73.76% |     7397428     26.24%    100.00% (Unspecified)
system.caches.L0Cache_Controller.S.Ifetch::total     28189903                       (Unspecified)
system.caches.L0Cache_Controller.S.Store |        8877     30.59%     30.59% |        5634     19.41%     50.00% |        6767     23.32%     73.31% |        7746     26.69%    100.00% (Unspecified)
system.caches.L0Cache_Controller.S.Store::total        29024                       (Unspecified)
system.caches.L0Cache_Controller.S.Replacement |      157394     30.42%     30.42% |       99934     19.32%     49.74% |      143442     27.73%     77.47% |      116573     22.53%    100.00% (Unspecified)
system.caches.L0Cache_Controller.S.Replacement::total       517343                       (Unspecified)
system.caches.L0Cache_Controller.S.Inv   |       23684     28.55%     28.55% |       15245     18.38%     46.93% |       23156     27.91%     74.84% |       20871     25.16%    100.00% (Unspecified)
system.caches.L0Cache_Controller.S.Inv::total        82956                       (Unspecified)
system.caches.L0Cache_Controller.M.Load  |      326619     27.95%     27.95% |      238491     20.41%     48.35% |      291129     24.91%     73.26% |      312534     26.74%    100.00% (Unspecified)
system.caches.L0Cache_Controller.M.Load::total      1168773                       (Unspecified)
system.caches.L0Cache_Controller.M.Store |      241071     31.55%     31.55% |      154651     20.24%     51.79% |      149228     19.53%     71.31% |      219204     28.69%    100.00% (Unspecified)
system.caches.L0Cache_Controller.M.Store::total       764154                       (Unspecified)
system.caches.L0Cache_Controller.M.Replacement |       34130     26.98%     26.98% |       25425     20.10%     47.08% |       34410     27.20%     74.28% |       32533     25.72%    100.00% (Unspecified)
system.caches.L0Cache_Controller.M.Replacement::total       126498                       (Unspecified)
system.caches.L0Cache_Controller.M.Inv   |        7025     35.65%     35.65% |        3980     20.20%     55.85% |        4127     20.95%     76.80% |        4571     23.20%    100.00% (Unspecified)
system.caches.L0Cache_Controller.M.Inv::total        19703                       (Unspecified)
system.caches.L1Cache_Controller.Load    |      207426     29.55%     29.55% |      136419     19.43%     48.98% |      194531     27.71%     76.69% |      163647     23.31%    100.00% (Unspecified)
system.caches.L1Cache_Controller.Load::total       702023                       (Unspecified)
system.caches.L1Cache_Controller.Store   |       23744     32.20%     32.20% |       13857     18.79%     50.99% |       17429     23.64%     74.63% |       18706     25.37%    100.00% (Unspecified)
system.caches.L1Cache_Controller.Store::total        73736                       (Unspecified)
system.caches.L1Cache_Controller.PutM    |       34130     26.98%     26.98% |       25425     20.10%     47.08% |       34410     27.20%     74.28% |       32533     25.72%    100.00% (Unspecified)
system.caches.L1Cache_Controller.PutM::total       126498                       (Unspecified)
system.caches.L1Cache_Controller.Replacement |      209288     30.58%     30.58% |      126791     18.53%     49.10% |      184297     26.93%     76.03% |      164044     23.97%    100.00% (Unspecified)
system.caches.L1Cache_Controller.Replacement::total       684420                       (Unspecified)
system.caches.L1Cache_Controller.FwdGetM |        6567     31.39%     31.39% |        5328     25.47%     56.86% |        4196     20.06%     76.92% |        4827     23.08%    100.00% (Unspecified)
system.caches.L1Cache_Controller.FwdGetM::total        20918                       (Unspecified)
system.caches.L1Cache_Controller.Inv     |         120     21.31%     21.31% |         109     19.36%     40.67% |         185     32.86%     73.53% |         149     26.47%    100.00% (Unspecified)
system.caches.L1Cache_Controller.Inv::total          563                       (Unspecified)
system.caches.L1Cache_Controller.PutAck  |      100409     30.31%     30.31% |       61693     18.62%     48.93% |       89756     27.09%     76.02% |       79431     23.98%    100.00% (Unspecified)
system.caches.L1Cache_Controller.PutAck::total       331289                       (Unspecified)
system.caches.L1Cache_Controller.DataDirNoAcks |      110240     30.30%     30.30% |       68078     18.71%     49.01% |       97448     26.78%     75.80% |       88050     24.20%    100.00% (Unspecified)
system.caches.L1Cache_Controller.DataDirNoAcks::total       363816                       (Unspecified)
system.caches.L1Cache_Controller.DataDirAcks |           2     33.33%     33.33% |           1     16.67%     50.00% |           2     33.33%     83.33% |           1     16.67%    100.00% (Unspecified)
system.caches.L1Cache_Controller.DataDirAcks::total            6                       (Unspecified)
system.caches.L1Cache_Controller.DataOwner |        3468     30.23%     30.23% |        2815     24.54%     54.76% |        2553     22.25%     77.02% |        2637     22.98%    100.00% (Unspecified)
system.caches.L1Cache_Controller.DataOwner::total        11473                       (Unspecified)
system.caches.L1Cache_Controller.InvAck  |         201     36.09%     36.09% |         101     18.13%     54.22% |         104     18.67%     72.89% |         151     27.11%    100.00% (Unspecified)
system.caches.L1Cache_Controller.InvAck::total          557                       (Unspecified)
system.caches.L1Cache_Controller.LastInvAck |           2     33.33%     33.33% |           1     16.67%     50.00% |           2     33.33%     83.33% |           1     16.67%    100.00% (Unspecified)
system.caches.L1Cache_Controller.LastInvAck::total            6                       (Unspecified)
system.caches.L1Cache_Controller.WB_Data |        7025     35.65%     35.65% |        3980     20.20%     55.85% |        4127     20.95%     76.80% |        4571     23.20%    100.00% (Unspecified)
system.caches.L1Cache_Controller.WB_Data::total        19703                       (Unspecified)
system.caches.L1Cache_Controller.I.Load  |       93608     29.96%     29.96% |       58937     18.86%     48.82% |       85208     27.27%     76.08% |       74733     23.92%    100.00% (Unspecified)
system.caches.L1Cache_Controller.I.Load::total       312486                       (Unspecified)
system.caches.L1Cache_Controller.I.Store |       10653     34.01%     34.01% |        5864     18.72%     52.73% |        7150     22.83%     75.56% |        7654     24.44%    100.00% (Unspecified)
system.caches.L1Cache_Controller.I.Store::total        31321                       (Unspecified)
system.caches.L1Cache_Controller.IS_D.FwdGetM |          11     21.57%     21.57% |          15     29.41%     50.98% |           9     17.65%     68.63% |          16     31.37%    100.00% (Unspecified)
system.caches.L1Cache_Controller.IS_D.FwdGetM::total           51                       (Unspecified)
system.caches.L1Cache_Controller.IS_D.DataDirNoAcks |       91173     29.96%     29.96% |       56981     18.73%     48.69% |       83226     27.35%     76.04% |       72903     23.96%    100.00% (Unspecified)
system.caches.L1Cache_Controller.IS_D.DataDirNoAcks::total       304283                       (Unspecified)
system.caches.L1Cache_Controller.IS_D.DataOwner |        2435     29.68%     29.68% |        1956     23.84%     53.53% |        1982     24.16%     77.69% |        1830     22.31%    100.00% (Unspecified)
system.caches.L1Cache_Controller.IS_D.DataOwner::total         8203                       (Unspecified)
system.caches.L1Cache_Controller.IM_AD.FwdGetM |          12     31.58%     31.58% |           8     21.05%     52.63% |           7     18.42%     71.05% |          11     28.95%    100.00% (Unspecified)
system.caches.L1Cache_Controller.IM_AD.FwdGetM::total           38                       (Unspecified)
system.caches.L1Cache_Controller.IM_AD.DataDirNoAcks |        9620     34.29%     34.29% |        5005     17.84%     52.14% |        6580     23.46%     75.59% |        6847     24.41%    100.00% (Unspecified)
system.caches.L1Cache_Controller.IM_AD.DataDirNoAcks::total        28052                       (Unspecified)
system.caches.L1Cache_Controller.IM_AD.DataOwner |        1033     31.59%     31.59% |         859     26.27%     57.86% |         571     17.46%     75.32% |         807     24.68%    100.00% (Unspecified)
system.caches.L1Cache_Controller.IM_AD.DataOwner::total         3270                       (Unspecified)
system.caches.L1Cache_Controller.IM_AD.InvAck |          33     27.97%     27.97% |          30     25.42%     53.39% |          23     19.49%     72.88% |          32     27.12%    100.00% (Unspecified)
system.caches.L1Cache_Controller.IM_AD.InvAck::total          118                       (Unspecified)
system.caches.L1Cache_Controller.S.Load  |       98822     30.39%     30.39% |       63875     19.64%     50.03% |       90182     27.73%     77.76% |       72331     22.24%    100.00% (Unspecified)
system.caches.L1Cache_Controller.S.Load::total       325210                       (Unspecified)
system.caches.L1Cache_Controller.S.Store |        9449     30.01%     30.01% |        6093     19.35%     49.36% |        7645     24.28%     73.64% |        8301     26.36%    100.00% (Unspecified)
system.caches.L1Cache_Controller.S.Store::total        31488                       (Unspecified)
system.caches.L1Cache_Controller.S.Replacement |       81501     29.98%     29.98% |       50681     18.64%     48.63% |       75298     27.70%     76.33% |       64353     23.67%    100.00% (Unspecified)
system.caches.L1Cache_Controller.S.Replacement::total       271833                       (Unspecified)
system.caches.L1Cache_Controller.S.Inv   |         120     21.35%     21.35% |         109     19.40%     40.75% |         184     32.74%     73.49% |         149     26.51%    100.00% (Unspecified)
system.caches.L1Cache_Controller.S.Inv::total          562                       (Unspecified)
system.caches.L1Cache_Controller.SM_AD.Inv |           0      0.00%      0.00% |           0      0.00%      0.00% |           1    100.00%    100.00% |           0      0.00%    100.00% (Unspecified)
system.caches.L1Cache_Controller.SM_AD.Inv::total            1                       (Unspecified)
system.caches.L1Cache_Controller.SM_AD.DataDirNoAcks |        9447     30.01%     30.01% |        6092     19.35%     49.36% |        7642     24.27%     73.63% |        8300     26.37%    100.00% (Unspecified)
system.caches.L1Cache_Controller.SM_AD.DataDirNoAcks::total        31481                       (Unspecified)
system.caches.L1Cache_Controller.SM_AD.DataDirAcks |           2     33.33%     33.33% |           1     16.67%     50.00% |           2     33.33%     83.33% |           1     16.67%    100.00% (Unspecified)
system.caches.L1Cache_Controller.SM_AD.DataDirAcks::total            6                       (Unspecified)
system.caches.L1Cache_Controller.SM_AD.InvAck |         168     38.27%     38.27% |          71     16.17%     54.44% |          81     18.45%     72.89% |         119     27.11%    100.00% (Unspecified)
system.caches.L1Cache_Controller.SM_AD.InvAck::total          439                       (Unspecified)
system.caches.L1Cache_Controller.SM_A.LastInvAck |           2     33.33%     33.33% |           1     16.67%     50.00% |           2     33.33%     83.33% |           1     16.67%    100.00% (Unspecified)
system.caches.L1Cache_Controller.SM_A.LastInvAck::total            6                       (Unspecified)
system.caches.L1Cache_Controller.M.Load  |       14996     23.31%     23.31% |       13607     21.15%     44.46% |       19141     29.76%     74.22% |       16583     25.78%    100.00% (Unspecified)
system.caches.L1Cache_Controller.M.Load::total        64327                       (Unspecified)
system.caches.L1Cache_Controller.M.Store |        3642     33.33%     33.33% |        1900     17.39%     50.72% |        2634     24.11%     74.82% |        2751     25.18%    100.00% (Unspecified)
system.caches.L1Cache_Controller.M.Store::total        10927                       (Unspecified)
system.caches.L1Cache_Controller.M.Replacement |       18908     31.80%     31.80% |       11012     18.52%     50.32% |       14458     24.32%     74.64% |       15078     25.36%    100.00% (Unspecified)
system.caches.L1Cache_Controller.M.Replacement::total        59456                       (Unspecified)
system.caches.L1Cache_Controller.M.FwdGetM |        3604     31.42%     31.42% |        2880     25.11%     56.54% |        2299     20.05%     76.58% |        2686     23.42%    100.00% (Unspecified)
system.caches.L1Cache_Controller.M.FwdGetM::total        11469                       (Unspecified)
system.caches.L1Cache_Controller.M_P.PutM |       34124     26.98%     26.98% |       25425     20.10%     47.08% |       34407     27.20%     74.28% |       32530     25.72%    100.00% (Unspecified)
system.caches.L1Cache_Controller.M_P.PutM::total       126486                       (Unspecified)
system.caches.L1Cache_Controller.M_P.Replacement |        4111     39.30%     39.30% |        1586     15.16%     54.46% |        2279     21.79%     76.25% |        2484     23.75%    100.00% (Unspecified)
system.caches.L1Cache_Controller.M_P.Replacement::total        10460                       (Unspecified)
system.caches.L1Cache_Controller.M_P.FwdGetM |        2919     31.54%     31.54% |        2394     25.87%     57.41% |        1851     20.00%     77.42% |        2090     22.58%    100.00% (Unspecified)
system.caches.L1Cache_Controller.M_P.FwdGetM::total         9254                       (Unspecified)
system.caches.L1Cache_Controller.M_P.WB_Data |           1    100.00%    100.00% |           0      0.00%    100.00% |           0      0.00%    100.00% |           0      0.00%    100.00% (Unspecified)
system.caches.L1Cache_Controller.M_P.WB_Data::total            1                       (Unspecified)
system.caches.L1Cache_Controller.MP_D.PutM |           6     50.00%     50.00% |           0      0.00%     50.00% |           3     25.00%     75.00% |           3     25.00%    100.00% (Unspecified)
system.caches.L1Cache_Controller.MP_D.PutM::total           12                       (Unspecified)
system.caches.L1Cache_Controller.MP_D.Replacement |        4119     39.32%     39.32% |        1586     15.14%     54.46% |        2281     21.78%     76.24% |        2489     23.76%    100.00% (Unspecified)
system.caches.L1Cache_Controller.MP_D.Replacement::total        10475                       (Unspecified)
system.caches.L1Cache_Controller.MP_D.FwdGetM |          20     19.61%     19.61% |          29     28.43%     48.04% |          29     28.43%     76.47% |          24     23.53%    100.00% (Unspecified)
system.caches.L1Cache_Controller.MP_D.FwdGetM::total          102                       (Unspecified)
system.caches.L1Cache_Controller.MP_D.WB_Data |        7024     35.65%     35.65% |        3980     20.20%     55.85% |        4127     20.95%     76.80% |        4571     23.20%    100.00% (Unspecified)
system.caches.L1Cache_Controller.MP_D.WB_Data::total        19702                       (Unspecified)
system.caches.L1Cache_Controller.MI_A.Replacement |       18954     31.78%     31.78% |       11053     18.53%     50.32% |       14520     24.35%     74.66% |       15111     25.34%    100.00% (Unspecified)
system.caches.L1Cache_Controller.MI_A.Replacement::total        59638                       (Unspecified)
system.caches.L1Cache_Controller.MI_A.FwdGetM |           1     25.00%     25.00% |           2     50.00%     75.00% |           1     25.00%    100.00% |           0      0.00%    100.00% (Unspecified)
system.caches.L1Cache_Controller.MI_A.FwdGetM::total            4                       (Unspecified)
system.caches.L1Cache_Controller.MI_A.PutAck |       18907     31.80%     31.80% |       11010     18.52%     50.32% |       14457     24.32%     74.64% |       15078     25.36%    100.00% (Unspecified)
system.caches.L1Cache_Controller.MI_A.PutAck::total        59452                       (Unspecified)
system.caches.L1Cache_Controller.SI_A.Replacement |       81695     29.97%     29.97% |       50873     18.67%     48.64% |       75461     27.69%     76.32% |       64529     23.68%    100.00% (Unspecified)
system.caches.L1Cache_Controller.SI_A.Replacement::total       272558                       (Unspecified)
system.caches.L1Cache_Controller.SI_A.PutAck |       81501     29.98%     29.98% |       50681     18.64%     48.63% |       75298     27.70%     76.33% |       64353     23.67%    100.00% (Unspecified)
system.caches.L1Cache_Controller.SI_A.PutAck::total       271833                       (Unspecified)
system.caches.L1Cache_Controller.II_A.PutAck |           1     25.00%     25.00% |           2     50.00%     75.00% |           1     25.00%    100.00% |           0      0.00%    100.00% (Unspecified)
system.caches.L1Cache_Controller.II_A.PutAck::total            4                       (Unspecified)
system.caches.Directory_Controller.GetS        312486      0.00%      0.00% (Unspecified)
system.caches.Directory_Controller.GetM         62809      0.00%      0.00% (Unspecified)
system.caches.Directory_Controller.PutSNotLast       121077      0.00%      0.00% (Unspecified)
system.caches.Directory_Controller.PutSLast       118873      0.00%      0.00% (Unspecified)
system.caches.Directory_Controller.PutSLastWT        31883      0.00%      0.00% (Unspecified)
system.caches.Directory_Controller.PutMOwner        44684      0.00%      0.00% (Unspecified)
system.caches.Directory_Controller.PutMOwnerWT        14768      0.00%      0.00% (Unspecified)
system.caches.Directory_Controller.PutMNonOwner            4      0.00%      0.00% (Unspecified)
system.caches.Directory_Controller.Sync         10813      0.00%      0.00% (Unspecified)
system.caches.Directory_Controller.MemData        40184      0.00%      0.00% (Unspecified)
system.caches.Directory_Controller.LastMemAck        57464      0.00%      0.00% (Unspecified)
system.caches.Directory_Controller.I.GetS        28346      0.00%      0.00% (Unspecified)
system.caches.Directory_Controller.I.GetM        11838      0.00%      0.00% (Unspecified)
system.caches.Directory_Controller.S.GetS       121720      0.00%      0.00% (Unspecified)
system.caches.Directory_Controller.S.GetM        31592      0.00%      0.00% (Unspecified)
system.caches.Directory_Controller.S.PutSNotLast       121077      0.00%      0.00% (Unspecified)
system.caches.Directory_Controller.S.PutSLast       118873      0.00%      0.00% (Unspecified)
system.caches.Directory_Controller.S.PutSLastWT        31883      0.00%      0.00% (Unspecified)
system.caches.Directory_Controller.M.GetS         8203      0.00%      0.00% (Unspecified)
system.caches.Directory_Controller.M.GetM         3270      0.00%      0.00% (Unspecified)
system.caches.Directory_Controller.M.PutMOwner        44684      0.00%      0.00% (Unspecified)
system.caches.Directory_Controller.M.PutMOwnerWT        14768      0.00%      0.00% (Unspecified)
system.caches.Directory_Controller.M.PutMNonOwner            4      0.00%      0.00% (Unspecified)
system.caches.Directory_Controller.LLCOnly.GetS       154217      0.00%      0.00% (Unspecified)
system.caches.Directory_Controller.LLCOnly.GetM        16109      0.00%      0.00% (Unspecified)
system.caches.Directory_Controller.LLCOnly.Sync        10813      0.00%      0.00% (Unspecified)
system.caches.Directory_Controller.LLCOnly_m.LastMemAck        42696      0.00%      0.00% (Unspecified)
system.caches.Directory_Controller.S_m.MemData        28346      0.00%      0.00% (Unspecified)
system.caches.Directory_Controller.M_m.MemData        11838      0.00%      0.00% (Unspecified)
system.caches.Directory_Controller.MI_m.LastMemAck        14768      0.00%      0.00% (Unspecified)
system.caches.RequestType.LD.latency_hist_seqr::bucket_size          128                       (Unspecified)
system.caches.RequestType.LD.latency_hist_seqr::max_bucket         1279                       (Unspecified)
system.caches.RequestType.LD.latency_hist_seqr::samples      3151295                       (Unspecified)
system.caches.RequestType.LD.latency_hist_seqr::mean     8.895004                       (Unspecified)
system.caches.RequestType.LD.latency_hist_seqr::gmean     1.795274                       (Unspecified)
system.caches.RequestType.LD.latency_hist_seqr::stdev    37.566957                       (Unspecified)
system.caches.RequestType.LD.latency_hist_seqr |     3101596     98.42%     98.42% |       27983      0.89%     99.31% |       14848      0.47%     99.78% |        4549      0.14%     99.93% |        1756      0.06%     99.98% |         445      0.01%    100.00% |          89      0.00%    100.00% |          29      0.00%    100.00% |           0      0.00%    100.00% |           0      0.00%    100.00% (Unspecified)
system.caches.RequestType.LD.latency_hist_seqr::total      3151295                       (Unspecified)
system.caches.RequestType.LD.hit_latency_hist_seqr::bucket_size            1                       (Unspecified)
system.caches.RequestType.LD.hit_latency_hist_seqr::max_bucket            9                       (Unspecified)
system.caches.RequestType.LD.hit_latency_hist_seqr::samples      2557976                       (Unspecified)
system.caches.RequestType.LD.hit_latency_hist_seqr::mean            1                       (Unspecified)
system.caches.RequestType.LD.hit_latency_hist_seqr::gmean            1                       (Unspecified)
system.caches.RequestType.LD.hit_latency_hist_seqr |           0      0.00%      0.00% |     2557976    100.00%    100.00% |           0      0.00%    100.00% |           0      0.00%    100.00% |           0      0.00%    100.00% |           0      0.00%    100.00% |           0      0.00%    100.00% |           0      0.00%    100.00% |           0      0.00%    100.00% |           0      0.00%    100.00% (Unspecified)
system.caches.RequestType.LD.hit_latency_hist_seqr::total      2557976                       (Unspecified)
system.caches.RequestType.LD.miss_latency_hist_seqr::bucket_size          128                       (Unspecified)
system.caches.RequestType.LD.miss_latency_hist_seqr::max_bucket         1279                       (Unspecified)
system.caches.RequestType.LD.miss_latency_hist_seqr::samples       593319                       (Unspecified)
system.caches.RequestType.LD.miss_latency_hist_seqr::mean    42.932733                       (Unspecified)
system.caches.RequestType.LD.miss_latency_hist_seqr::gmean    22.375057                       (Unspecified)
system.caches.RequestType.LD.miss_latency_hist_seqr::stdev    77.900089                       (Unspecified)
system.caches.RequestType.LD.miss_latency_hist_seqr |      543620     91.62%     91.62% |       27983      4.72%     96.34% |       14848      2.50%     98.84% |        4549      0.77%     99.61% |        1756      0.30%     99.91% |         445      0.08%     99.98% |          89      0.02%    100.00% |          29      0.00%    100.00% |           0      0.00%    100.00% |           0      0.00%    100.00% (Unspecified)
system.caches.RequestType.LD.miss_latency_hist_seqr::total       593319                       (Unspecified)
system.caches.RequestType.ST.latency_hist_seqr::bucket_size          128                       (Unspecified)
system.caches.RequestType.ST.latency_hist_seqr::max_bucket         1279                       (Unspecified)
system.caches.RequestType.ST.latency_hist_seqr::samples       776556                       (Unspecified)
system.caches.RequestType.ST.latency_hist_seqr::mean    10.830815                       (Unspecified)
system.caches.RequestType.ST.latency_hist_seqr::gmean     1.401397                       (Unspecified)
system.caches.RequestType.ST.latency_hist_seqr::stdev    64.229283                       (Unspecified)
system.caches.RequestType.ST.latency_hist_seqr |      760017     97.87%     97.87% |        6742      0.87%     98.74% |        4704      0.61%     99.34% |        1321      0.17%     99.51% |        1046      0.13%     99.65% |         878      0.11%     99.76% |         908      0.12%     99.88% |         922      0.12%    100.00% |          18      0.00%    100.00% |           0      0.00%    100.00% (Unspecified)
system.caches.RequestType.ST.latency_hist_seqr::total       776556                       (Unspecified)
system.caches.RequestType.ST.hit_latency_hist_seqr::bucket_size            1                       (Unspecified)
system.caches.RequestType.ST.hit_latency_hist_seqr::max_bucket            9                       (Unspecified)
system.caches.RequestType.ST.hit_latency_hist_seqr::samples       709656                       (Unspecified)
system.caches.RequestType.ST.hit_latency_hist_seqr::mean            1                       (Unspecified)
system.caches.RequestType.ST.hit_latency_hist_seqr::gmean            1                       (Unspecified)
system.caches.RequestType.ST.hit_latency_hist_seqr |           0      0.00%      0.00% |      709656    100.00%    100.00% |           0      0.00%    100.00% |           0      0.00%    100.00% |           0      0.00%    100.00% |           0      0.00%    100.00% |           0      0.00%    100.00% |           0      0.00%    100.00% |           0      0.00%    100.00% |           0      0.00%    100.00% (Unspecified)
system.caches.RequestType.ST.hit_latency_hist_seqr::total       709656                       (Unspecified)
system.caches.RequestType.ST.miss_latency_hist_seqr::bucket_size          128                       (Unspecified)
system.caches.RequestType.ST.miss_latency_hist_seqr::max_bucket         1279                       (Unspecified)
system.caches.RequestType.ST.miss_latency_hist_seqr::samples        66900                       (Unspecified)
system.caches.RequestType.ST.miss_latency_hist_seqr::mean   115.113274                       (Unspecified)
system.caches.RequestType.ST.miss_latency_hist_seqr::gmean    50.262097                       (Unspecified)
system.caches.RequestType.ST.miss_latency_hist_seqr::stdev   189.702221                       (Unspecified)
system.caches.RequestType.ST.miss_latency_hist_seqr |       50361     75.28%     75.28% |        6742     10.08%     85.36% |        4704      7.03%     92.39% |        1321      1.97%     94.36% |        1046      1.56%     95.93% |         878      1.31%     97.24% |         908      1.36%     98.59% |         922      1.38%     99.97% |          18      0.03%    100.00% |           0      0.00%    100.00% (Unspecified)
system.caches.RequestType.ST.miss_latency_hist_seqr::total        66900                       (Unspecified)
system.caches.RequestType.IFETCH.latency_hist_seqr::bucket_size          128                       (Unspecified)
system.caches.RequestType.IFETCH.latency_hist_seqr::max_bucket         1279                       (Unspecified)
system.caches.RequestType.IFETCH.latency_hist_seqr::samples     28298607                       (Unspecified)
system.caches.RequestType.IFETCH.latency_hist_seqr::mean     1.359817                       (Unspecified)
system.caches.RequestType.IFETCH.latency_hist_seqr::gmean     1.014969                       (Unspecified)
system.caches.RequestType.IFETCH.latency_hist_seqr::stdev     9.921086                       (Unspecified)
system.caches.RequestType.IFETCH.latency_hist_seqr |    28273254     99.91%     99.91% |       12710      0.04%     99.96% |        8609      0.03%     99.99% |        2196      0.01%     99.99% |        1131      0.00%    100.00% |         386      0.00%    100.00% |         207      0.00%    100.00% |         113      0.00%    100.00% |           1      0.00%    100.00% |           0      0.00%    100.00% (Unspecified)
system.caches.RequestType.IFETCH.latency_hist_seqr::total     28298607                       (Unspecified)
system.caches.RequestType.IFETCH.hit_latency_hist_seqr::bucket_size            1                       (Unspecified)
system.caches.RequestType.IFETCH.hit_latency_hist_seqr::max_bucket            9                       (Unspecified)
system.caches.RequestType.IFETCH.hit_latency_hist_seqr::samples     28189903                       (Unspecified)
system.caches.RequestType.IFETCH.hit_latency_hist_seqr::mean            1                       (Unspecified)
system.caches.RequestType.IFETCH.hit_latency_hist_seqr::gmean            1                       (Unspecified)
system.caches.RequestType.IFETCH.hit_latency_hist_seqr |           0      0.00%      0.00% |    28189903    100.00%    100.00% |           0      0.00%    100.00% |           0      0.00%    100.00% |           0      0.00%    100.00% |           0      0.00%    100.00% |           0      0.00%    100.00% |           0      0.00%    100.00% |           0      0.00%    100.00% |           0      0.00%    100.00% (Unspecified)
system.caches.RequestType.IFETCH.hit_latency_hist_seqr::total     28189903                       (Unspecified)
system.caches.RequestType.IFETCH.miss_latency_hist_seqr::bucket_size          128                       (Unspecified)
system.caches.RequestType.IFETCH.miss_latency_hist_seqr::max_bucket         1279                       (Unspecified)
system.caches.RequestType.IFETCH.miss_latency_hist_seqr::samples       108704                       (Unspecified)
system.caches.RequestType.IFETCH.miss_latency_hist_seqr::mean    94.670141                       (Unspecified)
system.caches.RequestType.IFETCH.miss_latency_hist_seqr::gmean    47.840152                       (Unspecified)
system.caches.RequestType.IFETCH.miss_latency_hist_seqr::stdev   129.935497                       (Unspecified)
system.caches.RequestType.IFETCH.miss_latency_hist_seqr |       83351     76.68%     76.68% |       12710     11.69%     88.37% |        8609      7.92%     96.29% |        2196      2.02%     98.31% |        1131      1.04%     99.35% |         386      0.36%     99.70% |         207      0.19%     99.90% |         113      0.10%    100.00% |           1      0.00%    100.00% |           0      0.00%    100.00% (Unspecified)
system.caches.RequestType.IFETCH.miss_latency_hist_seqr::total       108704                       (Unspecified)
system.caches.RequestType.RMW_Read.latency_hist_seqr::bucket_size          128                       (Unspecified)
system.caches.RequestType.RMW_Read.latency_hist_seqr::max_bucket         1279                       (Unspecified)
system.caches.RequestType.RMW_Read.latency_hist_seqr::samples        21348                       (Unspecified)
system.caches.RequestType.RMW_Read.latency_hist_seqr::mean     7.871276                       (Unspecified)
system.caches.RequestType.RMW_Read.latency_hist_seqr::gmean     1.416328                       (Unspecified)
system.caches.RequestType.RMW_Read.latency_hist_seqr::stdev    37.307399                       (Unspecified)
system.caches.RequestType.RMW_Read.latency_hist_seqr |       20957     98.17%     98.17% |         232      1.09%     99.26% |         120      0.56%     99.82% |          26      0.12%     99.94% |          11      0.05%     99.99% |           2      0.01%    100.00% |           0      0.00%    100.00% |           0      0.00%    100.00% |           0      0.00%    100.00% |           0      0.00%    100.00% (Unspecified)
system.caches.RequestType.RMW_Read.latency_hist_seqr::total        21348                       (Unspecified)
system.caches.RequestType.RMW_Read.hit_latency_hist_seqr::bucket_size            1                       (Unspecified)
system.caches.RequestType.RMW_Read.hit_latency_hist_seqr::max_bucket            9                       (Unspecified)
system.caches.RequestType.RMW_Read.hit_latency_hist_seqr::samples        19379                       (Unspecified)
system.caches.RequestType.RMW_Read.hit_latency_hist_seqr::mean            1                       (Unspecified)
system.caches.RequestType.RMW_Read.hit_latency_hist_seqr::gmean            1                       (Unspecified)
system.caches.RequestType.RMW_Read.hit_latency_hist_seqr |           0      0.00%      0.00% |       19379    100.00%    100.00% |           0      0.00%    100.00% |           0      0.00%    100.00% |           0      0.00%    100.00% |           0      0.00%    100.00% |           0      0.00%    100.00% |           0      0.00%    100.00% |           0      0.00%    100.00% |           0      0.00%    100.00% (Unspecified)
system.caches.RequestType.RMW_Read.hit_latency_hist_seqr::total        19379                       (Unspecified)
system.caches.RequestType.RMW_Read.miss_latency_hist_seqr::bucket_size          128                       (Unspecified)
system.caches.RequestType.RMW_Read.miss_latency_hist_seqr::max_bucket         1279                       (Unspecified)
system.caches.RequestType.RMW_Read.miss_latency_hist_seqr::samples         1969                       (Unspecified)
system.caches.RequestType.RMW_Read.miss_latency_hist_seqr::mean    75.498730                       (Unspecified)
system.caches.RequestType.RMW_Read.miss_latency_hist_seqr::gmean    43.543662                       (Unspecified)
system.caches.RequestType.RMW_Read.miss_latency_hist_seqr::stdev   100.282924                       (Unspecified)
system.caches.RequestType.RMW_Read.miss_latency_hist_seqr |        1578     80.14%     80.14% |         232     11.78%     91.92% |         120      6.09%     98.02% |          26      1.32%     99.34% |          11      0.56%     99.90% |           2      0.10%    100.00% |           0      0.00%    100.00% |           0      0.00%    100.00% |           0      0.00%    100.00% |           0      0.00%    100.00% (Unspecified)
system.caches.RequestType.RMW_Read.miss_latency_hist_seqr::total         1969                       (Unspecified)
system.caches.RequestType.Locked_RMW_Read.latency_hist_seqr::bucket_size          128                       (Unspecified)
system.caches.RequestType.Locked_RMW_Read.latency_hist_seqr::max_bucket         1279                       (Unspecified)
system.caches.RequestType.Locked_RMW_Read.latency_hist_seqr::samples        19993                       (Unspecified)
system.caches.RequestType.Locked_RMW_Read.latency_hist_seqr::mean    15.164508                       (Unspecified)
system.caches.RequestType.Locked_RMW_Read.latency_hist_seqr::gmean     2.444398                       (Unspecified)
system.caches.RequestType.Locked_RMW_Read.latency_hist_seqr::stdev    45.788675                       (Unspecified)
system.caches.RequestType.Locked_RMW_Read.latency_hist_seqr |       19427     97.17%     97.17% |         359      1.80%     98.96% |         153      0.77%     99.73% |          41      0.21%     99.93% |          10      0.05%     99.98% |           1      0.01%     99.99% |           2      0.01%    100.00% |           0      0.00%    100.00% |           0      0.00%    100.00% |           0      0.00%    100.00% (Unspecified)
system.caches.RequestType.Locked_RMW_Read.latency_hist_seqr::total        19993                       (Unspecified)
system.caches.RequestType.Locked_RMW_Read.hit_latency_hist_seqr::bucket_size            1                       (Unspecified)
system.caches.RequestType.Locked_RMW_Read.hit_latency_hist_seqr::max_bucket            9                       (Unspecified)
system.caches.RequestType.Locked_RMW_Read.hit_latency_hist_seqr::samples        15126                       (Unspecified)
system.caches.RequestType.Locked_RMW_Read.hit_latency_hist_seqr::mean            1                       (Unspecified)
system.caches.RequestType.Locked_RMW_Read.hit_latency_hist_seqr::gmean            1                       (Unspecified)
system.caches.RequestType.Locked_RMW_Read.hit_latency_hist_seqr |           0      0.00%      0.00% |       15126    100.00%    100.00% |           0      0.00%    100.00% |           0      0.00%    100.00% |           0      0.00%    100.00% |           0      0.00%    100.00% |           0      0.00%    100.00% |           0      0.00%    100.00% |           0      0.00%    100.00% |           0      0.00%    100.00% (Unspecified)
system.caches.RequestType.Locked_RMW_Read.hit_latency_hist_seqr::total        15126                       (Unspecified)
system.caches.RequestType.Locked_RMW_Read.miss_latency_hist_seqr::bucket_size          128                       (Unspecified)
system.caches.RequestType.Locked_RMW_Read.miss_latency_hist_seqr::max_bucket         1279                       (Unspecified)
system.caches.RequestType.Locked_RMW_Read.miss_latency_hist_seqr::samples         4867                       (Unspecified)
system.caches.RequestType.Locked_RMW_Read.miss_latency_hist_seqr::mean    59.185946                       (Unspecified)
system.caches.RequestType.Locked_RMW_Read.miss_latency_hist_seqr::gmean    39.315120                       (Unspecified)
system.caches.RequestType.Locked_RMW_Read.miss_latency_hist_seqr::stdev    77.794304                       (Unspecified)
system.caches.RequestType.Locked_RMW_Read.miss_latency_hist_seqr |        4301     88.37%     88.37% |         359      7.38%     95.75% |         153      3.14%     98.89% |          41      0.84%     99.73% |          10      0.21%     99.94% |           1      0.02%     99.96% |           2      0.04%    100.00% |           0      0.00%    100.00% |           0      0.00%    100.00% |           0      0.00%    100.00% (Unspecified)
system.caches.RequestType.Locked_RMW_Read.miss_latency_hist_seqr::total         4867                       (Unspecified)
system.caches.RequestType.Locked_RMW_Write.latency_hist_seqr::bucket_size            1                       (Unspecified)
system.caches.RequestType.Locked_RMW_Write.latency_hist_seqr::max_bucket            9                       (Unspecified)
system.caches.RequestType.Locked_RMW_Write.latency_hist_seqr::samples        19993                       (Unspecified)
system.caches.RequestType.Locked_RMW_Write.latency_hist_seqr::mean            1                       (Unspecified)
system.caches.RequestType.Locked_RMW_Write.latency_hist_seqr::gmean            1                       (Unspecified)
system.caches.RequestType.Locked_RMW_Write.latency_hist_seqr |           0      0.00%      0.00% |       19993    100.00%    100.00% |           0      0.00%    100.00% |           0      0.00%    100.00% |           0      0.00%    100.00% |           0      0.00%    100.00% |           0      0.00%    100.00% |           0      0.00%    100.00% |           0      0.00%    100.00% |           0      0.00%    100.00% (Unspecified)
system.caches.RequestType.Locked_RMW_Write.latency_hist_seqr::total        19993                       (Unspecified)
system.caches.RequestType.Locked_RMW_Write.hit_latency_hist_seqr::bucket_size            1                       (Unspecified)
system.caches.RequestType.Locked_RMW_Write.hit_latency_hist_seqr::max_bucket            9                       (Unspecified)
system.caches.RequestType.Locked_RMW_Write.hit_latency_hist_seqr::samples        19993                       (Unspecified)
system.caches.RequestType.Locked_RMW_Write.hit_latency_hist_seqr::mean            1                       (Unspecified)
system.caches.RequestType.Locked_RMW_Write.hit_latency_hist_seqr::gmean            1                       (Unspecified)
system.caches.RequestType.Locked_RMW_Write.hit_latency_hist_seqr |           0      0.00%      0.00% |       19993    100.00%    100.00% |           0      0.00%    100.00% |           0      0.00%    100.00% |           0      0.00%    100.00% |           0      0.00%    100.00% |           0      0.00%    100.00% |           0      0.00%    100.00% |           0      0.00%    100.00% |           0      0.00%    100.00% (Unspecified)
system.caches.RequestType.Locked_RMW_Write.hit_latency_hist_seqr::total        19993                       (Unspecified)
system.caches.controllers0.DCache.m_demand_hits            0                       # Number of cache demand hits (Unspecified)
system.caches.controllers0.DCache.m_demand_misses            0                       # Number of cache demand misses (Unspecified)
system.caches.controllers0.DCache.m_demand_accesses            0                       # Number of cache demand accesses (Unspecified)
system.caches.controllers0.ICache.m_demand_hits            0                       # Number of cache demand hits (Unspecified)
system.caches.controllers0.ICache.m_demand_misses            0                       # Number of cache demand misses (Unspecified)
system.caches.controllers0.ICache.m_demand_accesses            0                       # Number of cache demand accesses (Unspecified)
system.caches.controllers0.forwardFromL1.m_buf_msgs     6.730284                       # Average number of messages in buffer (Unspecified)
system.caches.controllers0.forwardFromL1.m_stall_time  4999.915233                       # Average number of cycles messages are stalled in this MB (Unspecified)
system.caches.controllers0.forwardFromL1.m_stall_count            1                       # Number of times messages were stalled (Unspecified)
system.caches.controllers0.mandatoryQueue.m_buf_msgs     0.212956                       # Average number of messages in buffer (Unspecified)
system.caches.controllers0.mandatoryQueue.m_stall_time   999.999976                       # Average number of cycles messages are stalled in this MB (Unspecified)
system.caches.controllers0.power_state.pwrStateResidencyTicks::UNDEFINED  41655295000                       # Cumulative time (in ticks) in various power states (Tick)
system.caches.controllers0.requestToL1.m_buf_msgs     0.006369                       # Average number of messages in buffer (Unspecified)
system.caches.controllers0.requestToL1.m_stall_time   999.999952                       # Average number of cycles messages are stalled in this MB (Unspecified)
system.caches.controllers0.responseFromL1.m_buf_msgs     0.005550                       # Average number of messages in buffer (Unspecified)
system.caches.controllers0.responseFromL1.m_stall_time  4999.984276                       # Average number of cycles messages are stalled in this MB (Unspecified)
system.caches.controllers0.responseToL1.m_buf_msgs     0.000169                       # Average number of messages in buffer (Unspecified)
system.caches.controllers0.responseToL1.m_stall_time   999.620024                       # Average number of cycles messages are stalled in this MB (Unspecified)
system.caches.controllers0.xyzStatsObject.power_state.pwrStateResidencyTicks::UNDEFINED  41655295000                       # Cumulative time (in ticks) in various power states (Tick)
system.caches.controllers1.DCache.m_demand_hits            0                       # Number of cache demand hits (Unspecified)
system.caches.controllers1.DCache.m_demand_misses            0                       # Number of cache demand misses (Unspecified)
system.caches.controllers1.DCache.m_demand_accesses            0                       # Number of cache demand accesses (Unspecified)
system.caches.controllers1.ICache.m_demand_hits            0                       # Number of cache demand hits (Unspecified)
system.caches.controllers1.ICache.m_demand_misses            0                       # Number of cache demand misses (Unspecified)
system.caches.controllers1.ICache.m_demand_accesses            0                       # Number of cache demand accesses (Unspecified)
system.caches.controllers1.forwardFromL1.m_buf_msgs     6.500016                       # Average number of messages in buffer (Unspecified)
system.caches.controllers1.forwardFromL1.m_stall_time  4066.220201                       # Average number of cycles messages are stalled in this MB (Unspecified)
system.caches.controllers1.mandatoryQueue.m_buf_msgs     0.159911                       # Average number of messages in buffer (Unspecified)
system.caches.controllers1.mandatoryQueue.m_stall_time   813.315882                       # Average number of cycles messages are stalled in this MB (Unspecified)
system.caches.controllers1.power_state.pwrStateResidencyTicks::UNDEFINED  41655295000                       # Cumulative time (in ticks) in various power states (Tick)
system.caches.controllers1.requestToL1.m_buf_msgs     0.004218                       # Average number of messages in buffer (Unspecified)
system.caches.controllers1.requestToL1.m_stall_time   813.315858                       # Average number of cycles messages are stalled in this MB (Unspecified)
system.caches.controllers1.responseFromL1.m_buf_msgs     0.003608                       # Average number of messages in buffer (Unspecified)
system.caches.controllers1.responseFromL1.m_stall_time  4066.576050                       # Average number of cycles messages are stalled in this MB (Unspecified)
system.caches.controllers1.responseToL1.m_buf_msgs     0.000096                       # Average number of messages in buffer (Unspecified)
system.caches.controllers1.responseToL1.m_stall_time   812.504245                       # Average number of cycles messages are stalled in this MB (Unspecified)
system.caches.controllers1.xyzStatsObject.power_state.pwrStateResidencyTicks::UNDEFINED  41655295000                       # Cumulative time (in ticks) in various power states (Tick)
system.caches.controllers2.DCache.m_demand_hits            0                       # Number of cache demand hits (Unspecified)
system.caches.controllers2.DCache.m_demand_misses            0                       # Number of cache demand misses (Unspecified)
system.caches.controllers2.DCache.m_demand_accesses            0                       # Number of cache demand accesses (Unspecified)
system.caches.controllers2.ICache.m_demand_hits            0                       # Number of cache demand hits (Unspecified)
system.caches.controllers2.ICache.m_demand_misses            0                       # Number of cache demand misses (Unspecified)
system.caches.controllers2.ICache.m_demand_accesses            0                       # Number of cache demand accesses (Unspecified)
system.caches.controllers2.forwardFromL1.m_buf_msgs     3.693704                       # Average number of messages in buffer (Unspecified)
system.caches.controllers2.forwardFromL1.m_stall_time  4059.472919                       # Average number of cycles messages are stalled in this MB (Unspecified)
system.caches.controllers2.forwardFromL1.m_stall_count            1                       # Number of times messages were stalled (Unspecified)
system.caches.controllers2.mandatoryQueue.m_buf_msgs     0.198972                       # Average number of messages in buffer (Unspecified)
system.caches.controllers2.mandatoryQueue.m_stall_time   812.021953                       # Average number of cycles messages are stalled in this MB (Unspecified)
system.caches.controllers2.power_state.pwrStateResidencyTicks::UNDEFINED  41655295000                       # Cumulative time (in ticks) in various power states (Tick)
system.caches.controllers2.requestToL1.m_buf_msgs     0.005914                       # Average number of messages in buffer (Unspecified)
system.caches.controllers2.requestToL1.m_stall_time   812.021929                       # Average number of cycles messages are stalled in this MB (Unspecified)
system.caches.controllers2.responseFromL1.m_buf_msgs     0.005088                       # Average number of messages in buffer (Unspecified)
system.caches.controllers2.responseFromL1.m_stall_time  4060.094161                       # Average number of cycles messages are stalled in this MB (Unspecified)
system.caches.controllers2.responseToL1.m_buf_msgs     0.000099                       # Average number of messages in buffer (Unspecified)
system.caches.controllers2.responseToL1.m_stall_time   811.708884                       # Average number of cycles messages are stalled in this MB (Unspecified)
system.caches.controllers2.xyzStatsObject.power_state.pwrStateResidencyTicks::UNDEFINED  41655295000                       # Cumulative time (in ticks) in various power states (Tick)
system.caches.controllers3.DCache.m_demand_hits            0                       # Number of cache demand hits (Unspecified)
system.caches.controllers3.DCache.m_demand_misses            0                       # Number of cache demand misses (Unspecified)
system.caches.controllers3.DCache.m_demand_accesses            0                       # Number of cache demand accesses (Unspecified)
system.caches.controllers3.ICache.m_demand_hits            0                       # Number of cache demand hits (Unspecified)
system.caches.controllers3.ICache.m_demand_misses            0                       # Number of cache demand misses (Unspecified)
system.caches.controllers3.ICache.m_demand_accesses            0                       # Number of cache demand accesses (Unspecified)
system.caches.controllers3.forwardFromL1.m_buf_msgs     2.388316                       # Average number of messages in buffer (Unspecified)
system.caches.controllers3.forwardFromL1.m_stall_time  4053.105254                       # Average number of cycles messages are stalled in this MB (Unspecified)
system.caches.controllers3.mandatoryQueue.m_buf_msgs     0.203280                       # Average number of messages in buffer (Unspecified)
system.caches.controllers3.mandatoryQueue.m_stall_time   810.633654                       # Average number of cycles messages are stalled in this MB (Unspecified)
system.caches.controllers3.power_state.pwrStateResidencyTicks::UNDEFINED  41655295000                       # Cumulative time (in ticks) in various power states (Tick)
system.caches.controllers3.requestToL1.m_buf_msgs     0.005159                       # Average number of messages in buffer (Unspecified)
system.caches.controllers3.requestToL1.m_stall_time   810.633630                       # Average number of cycles messages are stalled in this MB (Unspecified)
system.caches.controllers3.responseFromL1.m_buf_msgs     0.004378                       # Average number of messages in buffer (Unspecified)
system.caches.controllers3.responseFromL1.m_stall_time  4053.133101                       # Average number of cycles messages are stalled in this MB (Unspecified)
system.caches.controllers3.responseToL1.m_buf_msgs     0.000110                       # Average number of messages in buffer (Unspecified)
system.caches.controllers3.responseToL1.m_stall_time   809.857378                       # Average number of cycles messages are stalled in this MB (Unspecified)
system.caches.controllers3.xyzStatsObject.power_state.pwrStateResidencyTicks::UNDEFINED  41655295000                       # Cumulative time (in ticks) in various power states (Tick)
system.caches.controllers4.cacheMemory.m_demand_hits            0                       # Number of cache demand hits (Unspecified)
system.caches.controllers4.cacheMemory.m_demand_misses            0                       # Number of cache demand misses (Unspecified)
system.caches.controllers4.cacheMemory.m_demand_accesses            0                       # Number of cache demand accesses (Unspecified)
system.caches.controllers4.forwardFromDir.m_buf_msgs     0.003208                       # Average number of messages in buffer (Unspecified)
system.caches.controllers4.forwardFromDir.m_stall_time  5959.668537                       # Average number of cycles messages are stalled in this MB (Unspecified)
system.caches.controllers4.forwardFromDir.m_stall_count         2962                       # Number of times messages were stalled (Unspecified)
system.caches.controllers4.forwardToL0.m_buf_msgs     0.002128                       # Average number of messages in buffer (Unspecified)
system.caches.controllers4.forwardToL0.m_stall_time   999.784301                       # Average number of cycles messages are stalled in this MB (Unspecified)
system.caches.controllers4.power_state.pwrStateResidencyTicks::UNDEFINED  41655295000                       # Cumulative time (in ticks) in various power states (Tick)
system.caches.controllers4.requestFromL0.m_buf_msgs     0.059864                       # Average number of messages in buffer (Unspecified)
system.caches.controllers4.requestFromL0.m_stall_time 20361.540856                       # Average number of cycles messages are stalled in this MB (Unspecified)
system.caches.controllers4.requestFromL0.m_stall_count       104768                       # Number of times messages were stalled (Unspecified)
system.caches.controllers4.requestToDir.m_buf_msgs     0.005140                       # Average number of messages in buffer (Unspecified)
system.caches.controllers4.requestToDir.m_stall_time   999.999832                       # Average number of cycles messages are stalled in this MB (Unspecified)
system.caches.controllers4.responseFromDirOrSibling.m_buf_msgs     0.002735                       # Average number of messages in buffer (Unspecified)
system.caches.controllers4.responseFromDirOrSibling.m_stall_time 12746.860921                       # Average number of cycles messages are stalled in this MB (Unspecified)
system.caches.controllers4.responseFromL0.m_buf_msgs     0.000169                       # Average number of messages in buffer (Unspecified)
system.caches.controllers4.responseFromL0.m_stall_time  4998.328232                       # Average number of cycles messages are stalled in this MB (Unspecified)
system.caches.controllers4.responseToDirOrSibling.m_buf_msgs     0.000089                       # Average number of messages in buffer (Unspecified)
system.caches.controllers4.responseToDirOrSibling.m_stall_time   813.312329                       # Average number of cycles messages are stalled in this MB (Unspecified)
system.caches.controllers4.responseToL0.m_buf_msgs     0.005550                       # Average number of messages in buffer (Unspecified)
system.caches.controllers4.responseToL0.m_stall_time   999.996951                       # Average number of cycles messages are stalled in this MB (Unspecified)
system.caches.controllers4.xyzStatsObject.power_state.pwrStateResidencyTicks::UNDEFINED  41655295000                       # Cumulative time (in ticks) in various power states (Tick)
system.caches.controllers5.cacheMemory.m_demand_hits            0                       # Number of cache demand hits (Unspecified)
system.caches.controllers5.cacheMemory.m_demand_misses            0                       # Number of cache demand misses (Unspecified)
system.caches.controllers5.cacheMemory.m_demand_accesses            0                       # Number of cache demand accesses (Unspecified)
system.caches.controllers5.forwardFromDir.m_buf_msgs     0.002135                       # Average number of messages in buffer (Unspecified)
system.caches.controllers5.forwardFromDir.m_stall_time  5125.870265                       # Average number of cycles messages are stalled in this MB (Unspecified)
system.caches.controllers5.forwardFromDir.m_stall_count         2446                       # Number of times messages were stalled (Unspecified)
system.caches.controllers5.forwardToL0.m_buf_msgs     0.001315                       # Average number of messages in buffer (Unspecified)
system.caches.controllers5.forwardToL0.m_stall_time   813.065158                       # Average number of cycles messages are stalled in this MB (Unspecified)
system.caches.controllers5.power_state.pwrStateResidencyTicks::UNDEFINED  41655295000                       # Cumulative time (in ticks) in various power states (Tick)
system.caches.controllers5.requestFromL0.m_buf_msgs     0.048160                       # Average number of messages in buffer (Unspecified)
system.caches.controllers5.requestFromL0.m_stall_time 22379.102755                       # Average number of cycles messages are stalled in this MB (Unspecified)
system.caches.controllers5.requestFromL0.m_stall_count        63512                       # Number of times messages were stalled (Unspecified)
system.caches.controllers5.requestToDir.m_buf_msgs     0.003183                       # Average number of messages in buffer (Unspecified)
system.caches.controllers5.requestToDir.m_stall_time   813.315738                       # Average number of cycles messages are stalled in this MB (Unspecified)
system.caches.controllers5.responseFromDirOrSibling.m_buf_msgs     0.001704                       # Average number of messages in buffer (Unspecified)
system.caches.controllers5.responseFromDirOrSibling.m_stall_time 10417.672951                       # Average number of cycles messages are stalled in this MB (Unspecified)
system.caches.controllers5.responseFromL0.m_buf_msgs     0.000096                       # Average number of messages in buffer (Unspecified)
system.caches.controllers5.responseFromL0.m_stall_time  4062.549815                       # Average number of cycles messages are stalled in this MB (Unspecified)
system.caches.controllers5.responseToDirOrSibling.m_buf_msgs     0.000072                       # Average number of messages in buffer (Unspecified)
system.caches.controllers5.responseToDirOrSibling.m_stall_time   811.919517                       # Average number of cycles messages are stalled in this MB (Unspecified)
system.caches.controllers5.responseToL0.m_buf_msgs     0.003608                       # Average number of messages in buffer (Unspecified)
system.caches.controllers5.responseToL0.m_stall_time   813.315306                       # Average number of cycles messages are stalled in this MB (Unspecified)
system.caches.controllers5.xyzStatsObject.power_state.pwrStateResidencyTicks::UNDEFINED  41655295000                       # Cumulative time (in ticks) in various power states (Tick)
system.caches.controllers6.cacheMemory.m_demand_hits            0                       # Number of cache demand hits (Unspecified)
system.caches.controllers6.cacheMemory.m_demand_misses            0                       # Number of cache demand misses (Unspecified)
system.caches.controllers6.cacheMemory.m_demand_accesses            0                       # Number of cache demand accesses (Unspecified)
system.caches.controllers6.forwardFromDir.m_buf_msgs     0.002664                       # Average number of messages in buffer (Unspecified)
system.caches.controllers6.forwardFromDir.m_stall_time  5134.392350                       # Average number of cycles messages are stalled in this MB (Unspecified)
system.caches.controllers6.forwardFromDir.m_stall_count         1896                       # Number of times messages were stalled (Unspecified)
system.caches.controllers6.forwardToL0.m_buf_msgs     0.001911                       # Average number of messages in buffer (Unspecified)
system.caches.controllers6.forwardToL0.m_stall_time   811.802917                       # Average number of cycles messages are stalled in this MB (Unspecified)
system.caches.controllers6.power_state.pwrStateResidencyTicks::UNDEFINED  41655295000                       # Cumulative time (in ticks) in various power states (Tick)
system.caches.controllers6.requestFromL0.m_buf_msgs     0.059634                       # Average number of messages in buffer (Unspecified)
system.caches.controllers6.requestFromL0.m_stall_time 24303.731833                       # Average number of cycles messages are stalled in this MB (Unspecified)
system.caches.controllers6.requestFromL0.m_stall_count        92262                       # Number of times messages were stalled (Unspecified)
system.caches.controllers6.requestToDir.m_buf_msgs     0.004555                       # Average number of messages in buffer (Unspecified)
system.caches.controllers6.requestToDir.m_stall_time   812.021809                       # Average number of cycles messages are stalled in this MB (Unspecified)
system.caches.controllers6.responseFromDirOrSibling.m_buf_msgs     0.002403                       # Average number of messages in buffer (Unspecified)
system.caches.controllers6.responseFromDirOrSibling.m_stall_time 10308.280688                       # Average number of cycles messages are stalled in this MB (Unspecified)
system.caches.controllers6.responseFromL0.m_buf_msgs     0.000099                       # Average number of messages in buffer (Unspecified)
system.caches.controllers6.responseFromL0.m_stall_time  4058.569721                       # Average number of cycles messages are stalled in this MB (Unspecified)
system.caches.controllers6.responseToDirOrSibling.m_buf_msgs     0.000060                       # Average number of messages in buffer (Unspecified)
system.caches.controllers6.responseToDirOrSibling.m_stall_time   811.708764                       # Average number of cycles messages are stalled in this MB (Unspecified)
system.caches.controllers6.responseToL0.m_buf_msgs     0.005088                       # Average number of messages in buffer (Unspecified)
system.caches.controllers6.responseToL0.m_stall_time   812.018928                       # Average number of cycles messages are stalled in this MB (Unspecified)
system.caches.controllers6.xyzStatsObject.power_state.pwrStateResidencyTicks::UNDEFINED  41655295000                       # Cumulative time (in ticks) in various power states (Tick)
system.caches.controllers7.cacheMemory.m_demand_hits            0                       # Number of cache demand hits (Unspecified)
system.caches.controllers7.cacheMemory.m_demand_misses            0                       # Number of cache demand misses (Unspecified)
system.caches.controllers7.cacheMemory.m_demand_accesses            0                       # Number of cache demand accesses (Unspecified)
system.caches.controllers7.forwardFromDir.m_buf_msgs     0.002484                       # Average number of messages in buffer (Unspecified)
system.caches.controllers7.forwardFromDir.m_stall_time  4763.049788                       # Average number of cycles messages are stalled in this MB (Unspecified)
system.caches.controllers7.forwardFromDir.m_stall_count         2141                       # Number of times messages were stalled (Unspecified)
system.caches.controllers7.forwardToL0.m_buf_msgs     0.001658                       # Average number of messages in buffer (Unspecified)
system.caches.controllers7.forwardToL0.m_stall_time   810.315399                       # Average number of cycles messages are stalled in this MB (Unspecified)
system.caches.controllers7.power_state.pwrStateResidencyTicks::UNDEFINED  41655295000                       # Cumulative time (in ticks) in various power states (Tick)
system.caches.controllers7.requestFromL0.m_buf_msgs     0.054878                       # Average number of messages in buffer (Unspecified)
system.caches.controllers7.requestFromL0.m_stall_time 23097.269341                       # Average number of cycles messages are stalled in this MB (Unspecified)
system.caches.controllers7.requestFromL0.m_stall_count        82129                       # Number of times messages were stalled (Unspecified)
system.caches.controllers7.requestToDir.m_buf_msgs     0.004084                       # Average number of messages in buffer (Unspecified)
system.caches.controllers7.requestToDir.m_stall_time   810.633510                       # Average number of cycles messages are stalled in this MB (Unspecified)
system.caches.controllers7.responseFromDirOrSibling.m_buf_msgs     0.002181                       # Average number of messages in buffer (Unspecified)
system.caches.controllers7.responseFromDirOrSibling.m_stall_time 10367.365565                       # Average number of cycles messages are stalled in this MB (Unspecified)
system.caches.controllers7.responseFromL0.m_buf_msgs     0.000110                       # Average number of messages in buffer (Unspecified)
system.caches.controllers7.responseFromL0.m_stall_time  4049.417679                       # Average number of cycles messages are stalled in this MB (Unspecified)
system.caches.controllers7.responseToDirOrSibling.m_buf_msgs     0.000068                       # Average number of messages in buffer (Unspecified)
system.caches.controllers7.responseToDirOrSibling.m_stall_time   809.454356                       # Average number of cycles messages are stalled in this MB (Unspecified)
system.caches.controllers7.responseToL0.m_buf_msgs     0.004378                       # Average number of messages in buffer (Unspecified)
system.caches.controllers7.responseToL0.m_stall_time   810.626716                       # Average number of cycles messages are stalled in this MB (Unspecified)
system.caches.controllers7.xyzStatsObject.power_state.pwrStateResidencyTicks::UNDEFINED  41655295000                       # Cumulative time (in ticks) in various power states (Tick)
system.caches.controllers8.cacheMemory.m_demand_hits            0                       # Number of cache demand hits (Unspecified)
system.caches.controllers8.cacheMemory.m_demand_misses            0                       # Number of cache demand misses (Unspecified)
system.caches.controllers8.cacheMemory.m_demand_accesses            0                       # Number of cache demand accesses (Unspecified)
system.caches.controllers8.forwardToCache.m_buf_msgs     0.008987                       # Average number of messages in buffer (Unspecified)
system.caches.controllers8.forwardToCache.m_stall_time   999.902485                       # Average number of cycles messages are stalled in this MB (Unspecified)
system.caches.controllers8.power_state.pwrStateResidencyTicks::UNDEFINED  41655295000                       # Cumulative time (in ticks) in various power states (Tick)
system.caches.controllers8.requestFromCache.m_not_avail_count       118912                       # Number of times this buffer did not have N slots available (Unspecified)
system.caches.controllers8.requestFromCache.m_buf_msgs     0.016963                       # Average number of messages in buffer (Unspecified)
system.caches.controllers8.requestFromCache.m_stall_time 45380.469015                       # Average number of cycles messages are stalled in this MB (Unspecified)
system.caches.controllers8.requestFromCache.m_occupancy     0.016963                       # Average occupancy of buffer capacity (Unspecified)
system.caches.controllers8.requestToMemory.m_buf_msgs     0.002344                       # Average number of messages in buffer (Unspecified)
system.caches.controllers8.requestToMemory.m_stall_time   999.999712                       # Average number of cycles messages are stalled in this MB (Unspecified)
system.caches.controllers8.responseFromMemory.m_buf_msgs     0.002344                       # Average number of messages in buffer (Unspecified)
system.caches.controllers8.responseFromMemory.m_stall_time   999.997287                       # Average number of cycles messages are stalled in this MB (Unspecified)
system.caches.controllers8.responseToCache.m_buf_msgs     0.078607                       # Average number of messages in buffer (Unspecified)
system.caches.controllers8.responseToCache.m_stall_time  8999.973641                       # Average number of cycles messages are stalled in this MB (Unspecified)
system.caches.controllers8.xyzCacheMemory.m_demand_hits            0                       # Number of cache demand hits (Unspecified)
system.caches.controllers8.xyzCacheMemory.m_demand_misses            0                       # Number of cache demand misses (Unspecified)
system.caches.controllers8.xyzCacheMemory.m_demand_accesses            0                       # Number of cache demand accesses (Unspecified)
system.caches.controllers8.xyzStatsObject.power_state.pwrStateResidencyTicks::UNDEFINED  41655295000                       # Cumulative time (in ticks) in various power states (Tick)
system.caches.network.msg_count.Control       4117768                       (Unspecified)
system.caches.network.msg_byte.Control       32942144                       (Unspecified)
system.caches.network.msg_count.Data          2066146                       (Unspecified)
system.caches.network.msg_byte.Data         148762512                       (Unspecified)
system.caches.network.msg_count.Response_Data       647276                       (Unspecified)
system.caches.network.msg_byte.Response_Data     46603872                       (Unspecified)
system.caches.network.int_link_buffers102.m_buf_msgs     0.001911                       # Average number of messages in buffer (Unspecified)
system.caches.network.int_link_buffers102.m_stall_time  2435.835540                       # Average number of cycles messages are stalled in this MB (Unspecified)
system.caches.network.int_link_buffers103.m_buf_msgs     0.005088                       # Average number of messages in buffer (Unspecified)
system.caches.network.int_link_buffers103.m_stall_time  2436.056641                       # Average number of cycles messages are stalled in this MB (Unspecified)
system.caches.network.int_link_buffers107.m_buf_msgs     0.000032                       # Average number of messages in buffer (Unspecified)
system.caches.network.int_link_buffers107.m_stall_time  2431.483392                       # Average number of cycles messages are stalled in this MB (Unspecified)
system.caches.network.int_link_buffers11.m_buf_msgs     0.004218                       # Average number of messages in buffer (Unspecified)
[...]
system.caches.controllers2.xyzStatsObjectlatency::underflows            0      0.00%      0.00% # Mem access latency (Unspecified)
system.caches.controllers2.xyzStatsObjectlatency::0-49999       211960    100.00%    100.00% # Mem access latency (Unspecified)
system.caches.controllers2.xyzStatsObjectlatency::50000-99999            0      0.00%    100.00% # Mem access latency (Unspecified)
system.caches.controllers2.xyzStatsObjectlatency::100000            0      0.00%    100.00% # Mem access latency (Unspecified)
system.caches.controllers2.xyzStatsObjectlatency::overflows            0      0.00%    100.00% # Mem access latency (Unspecified)
system.caches.controllers2.xyzStatsObjectlatency::min_value           10                       # Mem access latency (Unspecified)
system.caches.controllers2.xyzStatsObjectlatency::max_value         1056                       # Mem access latency (Unspecified)
system.caches.controllers2.xyzStatsObjectlatency::total       211960                       # Mem access latency (Unspecified)
system.caches.controllers3.xyzStatsObject.total_put            0                       # Total number of put (PutM + PutS) (Unspecified)
system.caches.controllers3.xyzStatsObject.total_put_as_wt            0                       # Total number of put as write through (Unspecified)
system.caches.controllers3.xyzStatsObject.total_putm            0                       # Total number of PutM (Unspecified)
system.caches.controllers3.xyzStatsObject.total_putm_as_wt            0                       # Total number of PutM as write through (Unspecified)
system.caches.controllers3.xyzStatsObject.total_puts            0                       # Total number of PutS (Unspecified)
system.caches.controllers3.xyzStatsObject.total_puts_as_wt            0                       # Total number of PutS as write through (Unspecified)
system.caches.controllers3.xyzStatsObject.total_repl            0                       # Total Replacement (Unspecified)
system.caches.controllers3.xyzStatsObject.total_repl_llc            0                       # Total Replacement of LLC line (Unspecified)
system.caches.controllers3.xyzStatsObject.total_repl_owned            0                       # Total Replacement of owned line (Unspecified)
system.caches.controllers3.xyzStatsObject.total_repl_shared            0                       # Total Replacement of shared line (Unspecified)
system.caches.controllers3.xyzStatsObject.wt_putRatio          nan                       # WT / Put (Unspecified)
system.caches.controllers3.xyzStatsObject.wt_putmRatio          nan                       # PutM WT / PutM (Unspecified)
system.caches.controllers3.xyzStatsObject.wt_putsRatio          nan                       # PutS WT / PutS (Unspecified)
system.caches.controllers3.xyzStatsObjectlatency::samples       182353                       # Mem access latency (Unspecified)
system.caches.controllers3.xyzStatsObjectlatency::mean    53.623554                       # Mem access latency (Unspecified)
system.caches.controllers3.xyzStatsObjectlatency::stdev   101.697724                       # Mem access latency (Unspecified)
system.caches.controllers3.xyzStatsObjectlatency::underflows            0      0.00%      0.00% # Mem access latency (Unspecified)
system.caches.controllers3.xyzStatsObjectlatency::0-49999       182353    100.00%    100.00% # Mem access latency (Unspecified)
system.caches.controllers3.xyzStatsObjectlatency::50000-99999            0      0.00%    100.00% # Mem access latency (Unspecified)
system.caches.controllers3.xyzStatsObjectlatency::100000            0      0.00%    100.00% # Mem access latency (Unspecified)
system.caches.controllers3.xyzStatsObjectlatency::overflows            0      0.00%    100.00% # Mem access latency (Unspecified)
system.caches.controllers3.xyzStatsObjectlatency::min_value           10                       # Mem access latency (Unspecified)
system.caches.controllers3.xyzStatsObjectlatency::max_value         1065                       # Mem access latency (Unspecified)
system.caches.controllers3.xyzStatsObjectlatency::total       182353                       # Mem access latency (Unspecified)
system.caches.controllers4.xyzStatsObject.total_put            0                       # Total number of put (PutM + PutS) (Unspecified)
system.caches.controllers4.xyzStatsObject.total_put_as_wt            0                       # Total number of put as write through (Unspecified)
system.caches.controllers4.xyzStatsObject.total_putm            0                       # Total number of PutM (Unspecified)
system.caches.controllers4.xyzStatsObject.total_putm_as_wt            0                       # Total number of PutM as write through (Unspecified)
system.caches.controllers4.xyzStatsObject.total_puts            0                       # Total number of PutS (Unspecified)
system.caches.controllers4.xyzStatsObject.total_puts_as_wt            0                       # Total number of PutS as write through (Unspecified)
system.caches.controllers4.xyzStatsObject.total_repl            0                       # Total Replacement (Unspecified)
system.caches.controllers4.xyzStatsObject.total_repl_llc            0                       # Total Replacement of LLC line (Unspecified)
system.caches.controllers4.xyzStatsObject.total_repl_owned            0                       # Total Replacement of owned line (Unspecified)
system.caches.controllers4.xyzStatsObject.total_repl_shared            0                       # Total Replacement of shared line (Unspecified)
system.caches.controllers4.xyzStatsObject.wt_putRatio          nan                       # WT / Put (Unspecified)
system.caches.controllers4.xyzStatsObject.wt_putmRatio          nan                       # PutM WT / PutM (Unspecified)
system.caches.controllers4.xyzStatsObject.wt_putsRatio          nan                       # PutS WT / PutS (Unspecified)
system.caches.controllers4.xyzStatsObjectlatency::samples       113710                       # Mem access latency (Unspecified)
system.caches.controllers4.xyzStatsObjectlatency::mean    96.362158                       # Mem access latency (Unspecified)
system.caches.controllers4.xyzStatsObjectlatency::stdev   118.627262                       # Mem access latency (Unspecified)
system.caches.controllers4.xyzStatsObjectlatency::underflows            0      0.00%      0.00% # Mem access latency (Unspecified)
system.caches.controllers4.xyzStatsObjectlatency::0-49999       113710    100.00%    100.00% # Mem access latency (Unspecified)
system.caches.controllers4.xyzStatsObjectlatency::50000-99999            0      0.00%    100.00% # Mem access latency (Unspecified)
system.caches.controllers4.xyzStatsObjectlatency::100000            0      0.00%    100.00% # Mem access latency (Unspecified)
system.caches.controllers4.xyzStatsObjectlatency::overflows            0      0.00%    100.00% # Mem access latency (Unspecified)
system.caches.controllers4.xyzStatsObjectlatency::min_value           15                       # Mem access latency (Unspecified)
system.caches.controllers4.xyzStatsObjectlatency::max_value          730                       # Mem access latency (Unspecified)
system.caches.controllers4.xyzStatsObjectlatency::total       113710                       # Mem access latency (Unspecified)
system.caches.controllers5.xyzStatsObject.total_put            0                       # Total number of put (PutM + PutS) (Unspecified)
system.caches.controllers5.xyzStatsObject.total_put_as_wt            0                       # Total number of put as write through (Unspecified)
system.caches.controllers5.xyzStatsObject.total_putm            0                       # Total number of PutM (Unspecified)
system.caches.controllers5.xyzStatsObject.total_putm_as_wt            0                       # Total number of PutM as write through (Unspecified)
system.caches.controllers5.xyzStatsObject.total_puts            0                       # Total number of PutS (Unspecified)
system.caches.controllers5.xyzStatsObject.total_puts_as_wt            0                       # Total number of PutS as write through (Unspecified)
system.caches.controllers5.xyzStatsObject.total_repl            0                       # Total Replacement (Unspecified)
system.caches.controllers5.xyzStatsObject.total_repl_llc            0                       # Total Replacement of LLC line (Unspecified)
system.caches.controllers5.xyzStatsObject.total_repl_owned            0                       # Total Replacement of owned line (Unspecified)
system.caches.controllers5.xyzStatsObject.total_repl_shared            0                       # Total Replacement of shared line (Unspecified)
system.caches.controllers5.xyzStatsObject.wt_putRatio          nan                       # WT / Put (Unspecified)
system.caches.controllers5.xyzStatsObject.wt_putmRatio          nan                       # PutM WT / PutM (Unspecified)
system.caches.controllers5.xyzStatsObject.wt_putsRatio          nan                       # PutS WT / PutS (Unspecified)
system.caches.controllers5.xyzStatsObjectlatency::samples        70894                       # Mem access latency (Unspecified)
system.caches.controllers5.xyzStatsObjectlatency::mean    63.035744                       # Mem access latency (Unspecified)
system.caches.controllers5.xyzStatsObjectlatency::stdev   104.846659                       # Mem access latency (Unspecified)
system.caches.controllers5.xyzStatsObjectlatency::underflows            0      0.00%      0.00% # Mem access latency (Unspecified)
system.caches.controllers5.xyzStatsObjectlatency::0-49999        70894    100.00%    100.00% # Mem access latency (Unspecified)
system.caches.controllers5.xyzStatsObjectlatency::50000-99999            0      0.00%    100.00% # Mem access latency (Unspecified)
system.caches.controllers5.xyzStatsObjectlatency::100000            0      0.00%    100.00% # Mem access latency (Unspecified)
system.caches.controllers5.xyzStatsObjectlatency::overflows            0      0.00%    100.00% # Mem access latency (Unspecified)
system.caches.controllers5.xyzStatsObjectlatency::min_value           15                       # Mem access latency (Unspecified)
system.caches.controllers5.xyzStatsObjectlatency::max_value          728                       # Mem access latency (Unspecified)
system.caches.controllers5.xyzStatsObjectlatency::total        70894                       # Mem access latency (Unspecified)
system.caches.controllers6.xyzStatsObject.total_put            0                       # Total number of put (PutM + PutS) (Unspecified)
system.caches.controllers6.xyzStatsObject.total_put_as_wt            0                       # Total number of put as write through (Unspecified)
system.caches.controllers6.xyzStatsObject.total_putm            0                       # Total number of PutM (Unspecified)
system.caches.controllers6.xyzStatsObject.total_putm_as_wt            0                       # Total number of PutM as write through (Unspecified)
system.caches.controllers6.xyzStatsObject.total_puts            0                       # Total number of PutS (Unspecified)
system.caches.controllers6.xyzStatsObject.total_puts_as_wt            0                       # Total number of PutS as write through (Unspecified)
system.caches.controllers6.xyzStatsObject.total_repl            0                       # Total Replacement (Unspecified)
system.caches.controllers6.xyzStatsObject.total_repl_llc            0                       # Total Replacement of LLC line (Unspecified)
system.caches.controllers6.xyzStatsObject.total_repl_owned            0                       # Total Replacement of owned line (Unspecified)
system.caches.controllers6.xyzStatsObject.total_repl_shared            0                       # Total Replacement of shared line (Unspecified)
system.caches.controllers6.xyzStatsObject.wt_putRatio          nan                       # WT / Put (Unspecified)
system.caches.controllers6.xyzStatsObject.wt_putmRatio          nan                       # PutM WT / PutM (Unspecified)
system.caches.controllers6.xyzStatsObject.wt_putsRatio          nan                       # PutS WT / PutS (Unspecified)
system.caches.controllers6.xyzStatsObjectlatency::samples       100003                       # Mem access latency (Unspecified)
system.caches.controllers6.xyzStatsObjectlatency::mean    53.132146                       # Mem access latency (Unspecified)
system.caches.controllers6.xyzStatsObjectlatency::stdev    92.203317                       # Mem access latency (Unspecified)
system.caches.controllers6.xyzStatsObjectlatency::underflows            0      0.00%      0.00% # Mem access latency (Unspecified)
system.caches.controllers6.xyzStatsObjectlatency::0-49999       100003    100.00%    100.00% # Mem access latency (Unspecified)
system.caches.controllers6.xyzStatsObjectlatency::50000-99999            0      0.00%    100.00% # Mem access latency (Unspecified)
system.caches.controllers6.xyzStatsObjectlatency::100000            0      0.00%    100.00% # Mem access latency (Unspecified)
system.caches.controllers6.xyzStatsObjectlatency::overflows            0      0.00%    100.00% # Mem access latency (Unspecified)
system.caches.controllers6.xyzStatsObjectlatency::min_value           15                       # Mem access latency (Unspecified)
system.caches.controllers6.xyzStatsObjectlatency::max_value          728                       # Mem access latency (Unspecified)
system.caches.controllers6.xyzStatsObjectlatency::total       100003                       # Mem access latency (Unspecified)
system.caches.controllers7.xyzStatsObject.total_put            0                       # Total number of put (PutM + PutS) (Unspecified)
system.caches.controllers7.xyzStatsObject.total_put_as_wt            0                       # Total number of put as write through (Unspecified)
system.caches.controllers7.xyzStatsObject.total_putm            0                       # Total number of PutM (Unspecified)
system.caches.controllers7.xyzStatsObject.total_putm_as_wt            0                       # Total number of PutM as write through (Unspecified)
system.caches.controllers7.xyzStatsObject.total_puts            0                       # Total number of PutS (Unspecified)
system.caches.controllers7.xyzStatsObject.total_puts_as_wt            0                       # Total number of PutS as write through (Unspecified)
system.caches.controllers7.xyzStatsObject.total_repl            0                       # Total Replacement (Unspecified)
system.caches.controllers7.xyzStatsObject.total_repl_llc            0                       # Total Replacement of LLC line (Unspecified)
system.caches.controllers7.xyzStatsObject.total_repl_owned            0                       # Total Replacement of owned line (Unspecified)
system.caches.controllers7.xyzStatsObject.total_repl_shared            0                       # Total Replacement of shared line (Unspecified)
system.caches.controllers7.xyzStatsObject.wt_putRatio          nan                       # WT / Put (Unspecified)
system.caches.controllers7.xyzStatsObject.wt_putmRatio          nan                       # PutM WT / PutM (Unspecified)
system.caches.controllers7.xyzStatsObject.wt_putsRatio          nan                       # PutS WT / PutS (Unspecified)
system.caches.controllers7.xyzStatsObjectlatency::samples        90688                       # Mem access latency (Unspecified)
system.caches.controllers7.xyzStatsObjectlatency::mean    63.441370                       # Mem access latency (Unspecified)
system.caches.controllers7.xyzStatsObjectlatency::stdev   100.993767                       # Mem access latency (Unspecified)
system.caches.controllers7.xyzStatsObjectlatency::underflows            0      0.00%      0.00% # Mem access latency (Unspecified)
system.caches.controllers7.xyzStatsObjectlatency::0-49999        90688    100.00%    100.00% # Mem access latency (Unspecified)
system.caches.controllers7.xyzStatsObjectlatency::50000-99999            0      0.00%    100.00% # Mem access latency (Unspecified)
system.caches.controllers7.xyzStatsObjectlatency::100000            0      0.00%    100.00% # Mem access latency (Unspecified)
system.caches.controllers7.xyzStatsObjectlatency::overflows            0      0.00%    100.00% # Mem access latency (Unspecified)
system.caches.controllers7.xyzStatsObjectlatency::min_value           15                       # Mem access latency (Unspecified)
system.caches.controllers7.xyzStatsObjectlatency::max_value          732                       # Mem access latency (Unspecified)
system.caches.controllers7.xyzStatsObjectlatency::total        90688                       # Mem access latency (Unspecified)
system.caches.controllers8.xyzStatsObject.total_put       342102                       # Total number of put (PutM + PutS) (Unspecified)
system.caches.controllers8.xyzStatsObject.total_put_as_wt        57464                       # Total number of put as write through (Unspecified)
system.caches.controllers8.xyzStatsObject.total_putm        59456                       # Total number of PutM (Unspecified)
system.caches.controllers8.xyzStatsObject.total_putm_as_wt        14768                       # Total number of PutM as write through (Unspecified)
system.caches.controllers8.xyzStatsObject.total_puts       282646                       # Total number of PutS (Unspecified)
system.caches.controllers8.xyzStatsObject.total_puts_as_wt        42696                       # Total number of PutS as write through (Unspecified)
system.caches.controllers8.xyzStatsObject.total_repl            0                       # Total Replacement (Unspecified)
system.caches.controllers8.xyzStatsObject.total_repl_llc            0                       # Total Replacement of LLC line (Unspecified)
system.caches.controllers8.xyzStatsObject.total_repl_owned            0                       # Total Replacement of owned line (Unspecified)
system.caches.controllers8.xyzStatsObject.total_repl_shared            0                       # Total Replacement of shared line (Unspecified)
system.caches.controllers8.xyzStatsObject.wt_putRatio     0.167973                       # WT / Put (Unspecified)
system.caches.controllers8.xyzStatsObject.wt_putmRatio     0.248385                       # PutM WT / PutM (Unspecified)
system.caches.controllers8.xyzStatsObject.wt_putsRatio     0.151058                       # PutS WT / PutS (Unspecified)
system.caches.controllers8.xyzStatsObjectlatency::samples            0                       # Mem access latency (Unspecified)
system.caches.controllers8.xyzStatsObjectlatency::mean          nan                       # Mem access latency (Unspecified)
system.caches.controllers8.xyzStatsObjectlatency::stdev          nan                       # Mem access latency (Unspecified)
system.caches.controllers8.xyzStatsObjectlatency::underflows            0                       # Mem access latency (Unspecified)
system.caches.controllers8.xyzStatsObjectlatency::0-49999            0                       # Mem access latency (Unspecified)
system.caches.controllers8.xyzStatsObjectlatency::50000-99999            0                       # Mem access latency (Unspecified)
system.caches.controllers8.xyzStatsObjectlatency::100000            0                       # Mem access latency (Unspecified)
system.caches.controllers8.xyzStatsObjectlatency::overflows            0                       # Mem access latency (Unspecified)
system.caches.controllers8.xyzStatsObjectlatency::min_value            0                       # Mem access latency (Unspecified)
system.caches.controllers8.xyzStatsObjectlatency::max_value            0                       # Mem access latency (Unspecified)
system.caches.controllers8.xyzStatsObjectlatency::total            0                       # Mem access latency (Unspecified)

---------- End Simulation Statistics   ----------
