
---------- Begin Simulation Statistics ----------
simSeconds                                   0.277599                       # Number of seconds simulated (Second)
simTicks                                 277598975000                       # Number of ticks simulated (Tick)
finalTick                                277598975000                       # Number of ticks from beginning of simulation (restored from checkpoints and never reset) (Tick)
simFreq                                  1000000000000                       # The number of ticks per simulated second ((Tick/Second))
hostSeconds                                     76.87                       # Real time elapsed on the host (Second)
hostTickRate                               3611115747                       # The number of ticks simulated per host second (ticks/s) ((Tick/Second))
hostMemory                                    4952088                       # Number of bytes of host memory used (Byte)
simInsts                                     50408005                       # Number of instructions simulated (Count)
simOps                                       83391596                       # Number of ops (including micro ops) simulated (Count)
hostInstRate                                   655721                       # Simulator instruction rate (inst/s) ((Count/Second))
hostOpRate                                    1084778                       # Simulator op (including micro ops) rate (op/s) ((Count/Second))
system.caches.m_outstandReqHistSeqr::bucket_size            1                       (Unspecified)
system.caches.m_outstandReqHistSeqr::max_bucket            9                       (Unspecified)
system.caches.m_outstandReqHistSeqr::samples     86238285                       (Unspecified)
system.caches.m_outstandReqHistSeqr::mean            1                       (Unspecified)
system.caches.m_outstandReqHistSeqr::gmean            1                       (Unspecified)
system.caches.m_outstandReqHistSeqr      |           0      0.00%      0.00% |    86238285    100.00%    100.00% |           0      0.00%    100.00% |           0      0.00%    100.00% |           0      0.00%    100.00% |           0      0.00%    100.00% |           0      0.00%    100.00% |           0      0.00%    100.00% |           0      0.00%    100.00% |           0      0.00%    100.00% (Unspecified)
system.caches.m_outstandReqHistSeqr::total     86238285                       (Unspecified)
system.caches.m_latencyHistSeqr::bucket_size          128                       (Unspecified)
system.caches.m_latencyHistSeqr::max_bucket         1279                       (Unspecified)
system.caches.m_latencyHistSeqr::samples     86238285                       (Unspecified)
system.caches.m_latencyHistSeqr::mean        4.635504                       (Unspecified)
system.caches.m_latencyHistSeqr::gmean       1.104262                       (Unspecified)
system.caches.m_latencyHistSeqr::stdev      38.016147                       (Unspecified)
system.caches.m_latencyHistSeqr          |    85394194     99.02%     99.02% |      306305      0.36%     99.38% |      326354      0.38%     99.75% |       79431      0.09%     99.85% |       63165      0.07%     99.92% |       36376      0.04%     99.96% |       19365      0.02%     99.98% |       12928      0.01%    100.00% |         167      0.00%    100.00% |           0      0.00%    100.00% (Unspecified)
system.caches.m_latencyHistSeqr::total       86238285                       (Unspecified)
system.caches.m_hitLatencyHistSeqr::bucket_size            1                       (Unspecified)
system.caches.m_hitLatencyHistSeqr::max_bucket            9                       (Unspecified)
system.caches.m_hitLatencyHistSeqr::samples     84042188                       (Unspecified)
system.caches.m_hitLatencyHistSeqr::mean            1                       (Unspecified)
system.caches.m_hitLatencyHistSeqr::gmean            1                       (Unspecified)
system.caches.m_hitLatencyHistSeqr       |           0      0.00%      0.00% |    84042188    100.00%    100.00% |           0      0.00%    100.00% |           0      0.00%    100.00% |           0      0.00%    100.00% |           0      0.00%    100.00% |           0      0.00%    100.00% |           0      0.00%    100.00% |           0      0.00%    100.00% |           0      0.00%    100.00% (Unspecified)
system.caches.m_hitLatencyHistSeqr::total     84042188                       (Unspecified)
system.caches.m_missLatencyHistSeqr::bucket_size          128                       (Unspecified)
system.caches.m_missLatencyHistSeqr::max_bucket         1279                       (Unspecified)
system.caches.m_missLatencyHistSeqr::samples      2196097                       (Unspecified)
system.caches.m_missLatencyHistSeqr::mean   143.762215                       (Unspecified)
system.caches.m_missLatencyHistSeqr::gmean    49.135703                       (Unspecified)
system.caches.m_missLatencyHistSeqr::stdev   192.068875                       (Unspecified)
system.caches.m_missLatencyHistSeqr      |     1352006     61.56%     61.56% |      306305     13.95%     75.51% |      326354     14.86%     90.37% |       79431      3.62%     93.99% |       63165      2.88%     96.87% |       36376      1.66%     98.52% |       19365      0.88%     99.40% |       12928      0.59%     99.99% |         167      0.01%    100.00% |           0      0.00%    100.00% (Unspecified)
system.caches.m_missLatencyHistSeqr::total      2196097                       (Unspecified)
system.caches.L0Cache_Controller.Load    |     7346406     60.46%     60.46% |     1457685     12.00%     72.45% |     1620574     13.34%     85.79% |     1727015     14.21%    100.00% (Unspecified)
system.caches.L0Cache_Controller.Load::total     12151680                       (Unspecified)
system.caches.L0Cache_Controller.Ifetch  |    38230784     55.20%     55.20% |     9434932     13.62%     68.83% |    10406399     15.03%     83.85% |    11181841     16.15%    100.00% (Unspecified)
system.caches.L0Cache_Controller.Ifetch::total     69253956                       (Unspecified)
system.caches.L0Cache_Controller.Store   |     3191572     66.04%     66.04% |      504993     10.45%     76.49% |      534274     11.06%     87.55% |      601810     12.45%    100.00% (Unspecified)
system.caches.L0Cache_Controller.Store::total      4832649                       (Unspecified)
system.caches.L0Cache_Controller.Replacement |     1077241     58.92%     58.92% |      223315     12.21%     71.14% |      272728     14.92%     86.06% |      254933     13.94%    100.00% (Unspecified)
system.caches.L0Cache_Controller.Replacement::total      1828217                       (Unspecified)
system.caches.L0Cache_Controller.Inv     |      359188     52.08%     52.08% |       98611     14.30%     66.38% |      116810     16.94%     83.31% |      115074     16.69%    100.00% (Unspecified)
system.caches.L0Cache_Controller.Inv::total       689683                       (Unspecified)
system.caches.L0Cache_Controller.Data    |     1136150     57.80%     57.80% |      250734     12.76%     70.55% |      292120     14.86%     85.41% |      286735     14.59%    100.00% (Unspecified)
system.caches.L0Cache_Controller.Data::total      1965739                       (Unspecified)
system.caches.L0Cache_Controller.ExData  |      114446     49.68%     49.68% |       32416     14.07%     63.75% |       45644     19.81%     83.57% |       37852     16.43%    100.00% (Unspecified)
system.caches.L0Cache_Controller.ExData::total       230358                       (Unspecified)
system.caches.L0Cache_Controller.I.Load  |      825321     54.45%     54.45% |      207276     13.67%     68.12% |      249259     16.44%     84.57% |      233914     15.43%    100.00% (Unspecified)
system.caches.L0Cache_Controller.I.Load::total      1515770                       (Unspecified)
system.caches.L0Cache_Controller.I.Ifetch |      150400     58.85%     58.85% |       30634     11.99%     70.83% |       35891     14.04%     84.88% |       38647     15.12%    100.00% (Unspecified)
system.caches.L0Cache_Controller.I.Ifetch::total       255572                       (Unspecified)
system.caches.L0Cache_Controller.I.Store |      214256     76.99%     76.99% |       17609      6.33%     83.32% |       24607      8.84%     92.16% |       21813      7.84%    100.00% (Unspecified)
system.caches.L0Cache_Controller.I.Store::total       278285                       (Unspecified)
system.caches.L0Cache_Controller.I.Inv   |      246510     52.62%     52.62% |       66465     14.19%     66.80% |       79838     17.04%     83.84% |       75692     16.16%    100.00% (Unspecified)
system.caches.L0Cache_Controller.I.Inv::total       468505                       (Unspecified)
system.caches.L0Cache_Controller.IS_D.Data |      861275     55.89%     55.89% |      205494     13.34%     69.23% |      239506     15.54%     84.77% |      234709     15.23%    100.00% (Unspecified)
system.caches.L0Cache_Controller.IS_D.Data::total      1540984                       (Unspecified)
system.caches.L0Cache_Controller.IS_D.ExData |      114446     49.68%     49.68% |       32416     14.07%     63.75% |       45644     19.81%     83.57% |       37852     16.43%    100.00% (Unspecified)
system.caches.L0Cache_Controller.IS_D.ExData::total       230358                       (Unspecified)
system.caches.L0Cache_Controller.IM_D.Inv |           0      0.00%      0.00% |           0      0.00%      0.00% |           1    100.00%    100.00% |           0      0.00%    100.00% (Unspecified)
system.caches.L0Cache_Controller.IM_D.Inv::total            1                       (Unspecified)
system.caches.L0Cache_Controller.IM_D.Data |      274875     64.71%     64.71% |       45240     10.65%     75.36% |       52614     12.39%     87.75% |       52026     12.25%    100.00% (Unspecified)
system.caches.L0Cache_Controller.IM_D.Data::total       424755                       (Unspecified)
system.caches.L0Cache_Controller.S.Load  |     3649158     66.16%     66.16% |      558123     10.12%     76.28% |      619942     11.24%     87.52% |      688498     12.48%    100.00% (Unspecified)
system.caches.L0Cache_Controller.S.Load::total      5515721                       (Unspecified)
system.caches.L0Cache_Controller.S.Ifetch |    38080384     55.19%     55.19% |     9404298     13.63%     68.82% |    10370508     15.03%     83.85% |    11143194     16.15%    100.00% (Unspecified)
system.caches.L0Cache_Controller.S.Ifetch::total     68998384                       (Unspecified)
system.caches.L0Cache_Controller.S.Store |       60619     41.39%     41.39% |       27631     18.86%     60.25% |       28007     19.12%     79.37% |       30213     20.63%    100.00% (Unspecified)
system.caches.L0Cache_Controller.S.Store::total       146470                       (Unspecified)
system.caches.L0Cache_Controller.S.Replacement |      708955     58.46%     58.46% |      151786     12.52%     70.98% |      180263     14.86%     85.84% |      171694     14.16%    100.00% (Unspecified)
system.caches.L0Cache_Controller.S.Replacement::total      1212698                       (Unspecified)
system.caches.L0Cache_Controller.S.Inv   |       91655     50.46%     50.46% |       26034     14.33%     64.79% |       31193     17.17%     81.97% |       32758     18.03%    100.00% (Unspecified)
system.caches.L0Cache_Controller.S.Inv::total       181640                       (Unspecified)
system.caches.L0Cache_Controller.M.Load  |     2871927     56.09%     56.09% |      692286     13.52%     69.61% |      751373     14.67%     84.29% |      804603     15.71%    100.00% (Unspecified)
system.caches.L0Cache_Controller.M.Load::total      5120189                       (Unspecified)
system.caches.L0Cache_Controller.M.Store |     2916697     66.17%     66.17% |      459753     10.43%     76.60% |      481660     10.93%     87.53% |      549784     12.47%    100.00% (Unspecified)
system.caches.L0Cache_Controller.M.Store::total      4407894                       (Unspecified)
system.caches.L0Cache_Controller.M.Replacement |      368286     59.83%     59.83% |       71529     11.62%     71.45% |       92465     15.02%     86.48% |       83239     13.52%    100.00% (Unspecified)
system.caches.L0Cache_Controller.M.Replacement::total       615519                       (Unspecified)
system.caches.L0Cache_Controller.M.Inv   |       21023     53.17%     53.17% |        6112     15.46%     68.63% |        5778     14.61%     83.25% |        6624     16.75%    100.00% (Unspecified)
system.caches.L0Cache_Controller.M.Inv::total        39537                       (Unspecified)
system.caches.L1Cache_Controller.Load    |      975721     55.08%     55.08% |      237910     13.43%     68.51% |      285150     16.10%     84.61% |      272561     15.39%    100.00% (Unspecified)
system.caches.L1Cache_Controller.Load::total      1771342                       (Unspecified)
system.caches.L1Cache_Controller.Store   |      274875     64.71%     64.71% |       45240     10.65%     75.36% |       52614     12.39%     87.75% |       52026     12.25%    100.00% (Unspecified)
system.caches.L1Cache_Controller.Store::total       424755                       (Unspecified)
system.caches.L1Cache_Controller.PutM    |      368286     59.83%     59.83% |       71529     11.62%     71.45% |       92465     15.02%     86.48% |       83239     13.52%    100.00% (Unspecified)
system.caches.L1Cache_Controller.PutM::total       615519                       (Unspecified)
system.caches.L1Cache_Controller.Replacement |     1119272     55.29%     55.29% |      274730     13.57%     68.86% |      313499     15.48%     84.34% |      317042     15.66%    100.00% (Unspecified)
system.caches.L1Cache_Controller.Replacement::total      2024543                       (Unspecified)
system.caches.L1Cache_Controller.FwdGetM |        2890     35.17%     35.17% |        2568     31.25%     66.42% |        2076     25.26%     91.69% |         683      8.31%    100.00% (Unspecified)
system.caches.L1Cache_Controller.FwdGetM::total         8217                       (Unspecified)
system.caches.L1Cache_Controller.Inv     |          44     37.61%     37.61% |          29     24.79%     62.39% |          33     28.21%     90.60% |          11      9.40%    100.00% (Unspecified)
system.caches.L1Cache_Controller.Inv::total          117                       (Unspecified)
system.caches.L1Cache_Controller.PutAck  |      539917     55.33%     55.33% |      132183     13.54%     68.87% |      151650     15.54%     84.41% |      152146     15.59%    100.00% (Unspecified)
system.caches.L1Cache_Controller.PutAck::total       975896                       (Unspecified)
system.caches.L1Cache_Controller.DataDirNoAcks |      603101     53.44%     53.44% |      160684     14.24%     67.68% |      181134     16.05%     83.74% |      183539     16.26%    100.00% (Unspecified)
system.caches.L1Cache_Controller.DataDirNoAcks::total      1128458                       (Unspecified)
system.caches.L1Cache_Controller.DataOwner |        1493     34.37%     34.37% |        1353     31.15%     65.52% |        1119     25.76%     91.28% |         379      8.72%    100.00% (Unspecified)
system.caches.L1Cache_Controller.DataOwner::total         4344                       (Unspecified)
system.caches.L1Cache_Controller.InvAck  |          31     26.50%     26.50% |          24     20.51%     47.01% |          16     13.68%     60.68% |          46     39.32%    100.00% (Unspecified)
system.caches.L1Cache_Controller.InvAck::total          117                       (Unspecified)
system.caches.L1Cache_Controller.WB_Data |       21023     53.17%     53.17% |        6112     15.46%     68.63% |        5778     14.61%     83.25% |        6624     16.75%    100.00% (Unspecified)
system.caches.L1Cache_Controller.WB_Data::total        39537                       (Unspecified)
system.caches.L1Cache_Controller.I.Load  |      402648     49.92%     49.92% |      122276     15.16%     65.08% |      141506     17.54%     82.63% |      140104     17.37%    100.00% (Unspecified)
system.caches.L1Cache_Controller.I.Load::total       806534                       (Unspecified)
system.caches.L1Cache_Controller.I.Store |      138955     79.72%     79.72% |       11377      6.53%     86.24% |       11401      6.54%     92.79% |       12576      7.21%    100.00% (Unspecified)
system.caches.L1Cache_Controller.I.Store::total       174309                       (Unspecified)
system.caches.L1Cache_Controller.IS_D.FwdGetM |          12     38.71%     38.71% |          10     32.26%     70.97% |           6     19.35%     90.32% |           3      9.68%    100.00% (Unspecified)
system.caches.L1Cache_Controller.IS_D.FwdGetM::total           31                       (Unspecified)
system.caches.L1Cache_Controller.IS_D.DataDirNoAcks |      401263     50.00%     50.00% |      120981     15.08%     65.08% |      140475     17.50%     82.58% |      139788     17.42%    100.00% (Unspecified)
system.caches.L1Cache_Controller.IS_D.DataDirNoAcks::total       802507                       (Unspecified)
system.caches.L1Cache_Controller.IS_D.DataOwner |        1385     34.39%     34.39% |        1295     32.16%     66.55% |        1031     25.60%     92.15% |         316      7.85%    100.00% (Unspecified)
system.caches.L1Cache_Controller.IS_D.DataOwner::total         4027                       (Unspecified)
system.caches.L1Cache_Controller.IM_AD.FwdGetM |           0      0.00%      0.00% |           1     33.33%     33.33% |           1     33.33%     66.67% |           1     33.33%    100.00% (Unspecified)
system.caches.L1Cache_Controller.IM_AD.FwdGetM::total            3                       (Unspecified)
system.caches.L1Cache_Controller.IM_AD.DataDirNoAcks |      138847     79.80%     79.80% |       11320      6.51%     86.31% |       11313      6.50%     92.81% |       12513      7.19%    100.00% (Unspecified)
system.caches.L1Cache_Controller.IM_AD.DataDirNoAcks::total       173993                       (Unspecified)
system.caches.L1Cache_Controller.IM_AD.DataOwner |         108     34.07%     34.07% |          58     18.30%     52.37% |          88     27.76%     80.13% |          63     19.87%    100.00% (Unspecified)
system.caches.L1Cache_Controller.IM_AD.DataOwner::total          317                       (Unspecified)
system.caches.L1Cache_Controller.IM_AD.InvAck |          14     41.18%     41.18% |          13     38.24%     79.41% |           3      8.82%     88.24% |           4     11.76%    100.00% (Unspecified)
system.caches.L1Cache_Controller.IM_AD.InvAck::total           34                       (Unspecified)
system.caches.L1Cache_Controller.S.Load  |      460012     62.29%     62.29% |       84513     11.44%     73.74% |       99031     13.41%     87.15% |       94921     12.85%    100.00% (Unspecified)
system.caches.L1Cache_Controller.S.Load::total       738477                       (Unspecified)
system.caches.L1Cache_Controller.S.Store |       62991     41.45%     41.45% |       28384     18.68%     60.13% |       29346     19.31%     79.44% |       31238     20.56%    100.00% (Unspecified)
system.caches.L1Cache_Controller.S.Store::total       151959                       (Unspecified)
system.caches.L1Cache_Controller.S.Replacement |      338121     52.02%     52.02% |       92470     14.23%     66.24% |      110997     17.08%     83.32% |      108439     16.68%    100.00% (Unspecified)
system.caches.L1Cache_Controller.S.Replacement::total       650027                       (Unspecified)
system.caches.L1Cache_Controller.S.Inv   |          44     37.93%     37.93% |          28     24.14%     62.07% |          33     28.45%     90.52% |          11      9.48%    100.00% (Unspecified)
system.caches.L1Cache_Controller.S.Inv::total          116                       (Unspecified)
system.caches.L1Cache_Controller.SM_AD.Inv |           0      0.00%      0.00% |           1    100.00%    100.00% |           0      0.00%    100.00% |           0      0.00%    100.00% (Unspecified)
system.caches.L1Cache_Controller.SM_AD.Inv::total            1                       (Unspecified)
system.caches.L1Cache_Controller.SM_AD.DataDirNoAcks |       62991     41.45%     41.45% |       28383     18.68%     60.13% |       29346     19.31%     79.44% |       31238     20.56%    100.00% (Unspecified)
system.caches.L1Cache_Controller.SM_AD.DataDirNoAcks::total       151958                       (Unspecified)
system.caches.L1Cache_Controller.SM_AD.InvAck |          17     20.48%     20.48% |          11     13.25%     33.73% |          13     15.66%     49.40% |          42     50.60%    100.00% (Unspecified)
system.caches.L1Cache_Controller.SM_AD.InvAck::total           83                       (Unspecified)
system.caches.L1Cache_Controller.M.Load  |      113061     49.95%     49.95% |       31121     13.75%     63.70% |       44613     19.71%     83.42% |       37536     16.58%    100.00% (Unspecified)
system.caches.L1Cache_Controller.M.Load::total       226331                       (Unspecified)
system.caches.L1Cache_Controller.M.Store |       72929     74.05%     74.05% |        5479      5.56%     79.61% |       11867     12.05%     91.66% |        8212      8.34%    100.00% (Unspecified)
system.caches.L1Cache_Controller.M.Store::total        98487                       (Unspecified)
system.caches.L1Cache_Controller.M.Replacement |      201796     61.93%     61.93% |       39713     12.19%     74.11% |       40653     12.48%     86.59% |       43707     13.41%    100.00% (Unspecified)
system.caches.L1Cache_Controller.M.Replacement::total       325869                       (Unspecified)
system.caches.L1Cache_Controller.M.FwdGetM |        1514     34.86%     34.86% |        1321     30.42%     65.28% |        1105     25.44%     90.72% |         403      9.28%    100.00% (Unspecified)
system.caches.L1Cache_Controller.M.FwdGetM::total         4343                       (Unspecified)
system.caches.L1Cache_Controller.M_P.PutM |      368286     59.83%     59.83% |       71528     11.62%     71.45% |       92463     15.02%     86.48% |       83239     13.52%    100.00% (Unspecified)
system.caches.L1Cache_Controller.M_P.PutM::total       615516                       (Unspecified)
system.caches.L1Cache_Controller.M_P.Replacement |       19664     55.05%     55.05% |        4885     13.68%     68.73% |        4817     13.49%     82.22% |        6352     17.78%    100.00% (Unspecified)
system.caches.L1Cache_Controller.M_P.Replacement::total        35718                       (Unspecified)
system.caches.L1Cache_Controller.M_P.FwdGetM |        1359     35.57%     35.57% |        1228     32.14%     67.70% |         962     25.18%     92.88% |         272      7.12%    100.00% (Unspecified)
system.caches.L1Cache_Controller.M_P.FwdGetM::total         3821                       (Unspecified)
system.caches.L1Cache_Controller.M_P.WB_Data |           0      0.00%      0.00% |           0      0.00%      0.00% |           1    100.00%    100.00% |           0      0.00%    100.00% (Unspecified)
system.caches.L1Cache_Controller.M_P.WB_Data::total            1                       (Unspecified)
system.caches.L1Cache_Controller.MP_D.PutM |           0      0.00%      0.00% |           1     33.33%     33.33% |           2     66.67%    100.00% |           0      0.00%    100.00% (Unspecified)
system.caches.L1Cache_Controller.MP_D.PutM::total            3                       (Unspecified)
system.caches.L1Cache_Controller.MP_D.Replacement |       19665     55.05%     55.05% |        4886     13.68%     68.73% |        4818     13.49%     82.22% |        6352     17.78%    100.00% (Unspecified)
system.caches.L1Cache_Controller.MP_D.Replacement::total        35721                       (Unspecified)
system.caches.L1Cache_Controller.MP_D.FwdGetM |           5     27.78%     27.78% |           7     38.89%     66.67% |           2     11.11%     77.78% |           4     22.22%    100.00% (Unspecified)
system.caches.L1Cache_Controller.MP_D.FwdGetM::total           18                       (Unspecified)
system.caches.L1Cache_Controller.MP_D.WB_Data |       21023     53.17%     53.17% |        6112     15.46%     68.63% |        5777     14.61%     83.25% |        6624     16.75%    100.00% (Unspecified)
system.caches.L1Cache_Controller.MP_D.WB_Data::total        39536                       (Unspecified)
system.caches.L1Cache_Controller.MI_A.Replacement |      201871     61.73%     61.73% |       40255     12.31%     74.04% |       41154     12.58%     86.63% |       43732     13.37%    100.00% (Unspecified)
system.caches.L1Cache_Controller.MI_A.Replacement::total       327012                       (Unspecified)
system.caches.L1Cache_Controller.MI_A.FwdGetM |           0      0.00%      0.00% |           1    100.00%    100.00% |           0      0.00%    100.00% |           0      0.00%    100.00% (Unspecified)
system.caches.L1Cache_Controller.MI_A.FwdGetM::total            1                       (Unspecified)
system.caches.L1Cache_Controller.MI_A.PutAck |      201796     61.93%     61.93% |       39712     12.19%     74.11% |       40653     12.48%     86.59% |       43707     13.41%    100.00% (Unspecified)
system.caches.L1Cache_Controller.MI_A.PutAck::total       325868                       (Unspecified)
system.caches.L1Cache_Controller.SI_A.Replacement |      338155     52.01%     52.01% |       92521     14.23%     66.24% |      111060     17.08%     83.32% |      108460     16.68%    100.00% (Unspecified)
system.caches.L1Cache_Controller.SI_A.Replacement::total       650196                       (Unspecified)
system.caches.L1Cache_Controller.SI_A.PutAck |      338121     52.02%     52.02% |       92470     14.23%     66.24% |      110997     17.08%     83.32% |      108439     16.68%    100.00% (Unspecified)
system.caches.L1Cache_Controller.SI_A.PutAck::total       650027                       (Unspecified)
system.caches.L1Cache_Controller.II_A.PutAck |           0      0.00%      0.00% |           1    100.00%    100.00% |           0      0.00%    100.00% |           0      0.00%    100.00% (Unspecified)
system.caches.L1Cache_Controller.II_A.PutAck::total            1                       (Unspecified)
system.caches.Directory_Controller.GetS        806534      0.00%      0.00% (Unspecified)
system.caches.Directory_Controller.GetM        326268      0.00%      0.00% (Unspecified)
system.caches.Directory_Controller.PutSNotLast        96192      0.00%      0.00% (Unspecified)
system.caches.Directory_Controller.PutSLast       192359      0.00%      0.00% (Unspecified)
system.caches.Directory_Controller.PutSLastWT       361476      0.00%      0.00% (Unspecified)
system.caches.Directory_Controller.PutMOwner        79985      0.00%      0.00% (Unspecified)
system.caches.Directory_Controller.PutMOwnerWT       245883      0.00%      0.00% (Unspecified)
system.caches.Directory_Controller.PutMNonOwner            1      0.00%      0.00% (Unspecified)
system.caches.Directory_Controller.Sync         34148      0.00%      0.00% (Unspecified)
system.caches.Directory_Controller.MemData       486843      0.00%      0.00% (Unspecified)
system.caches.Directory_Controller.LastMemAck       641507      0.00%      0.00% (Unspecified)
system.caches.Directory_Controller.I.GetS       346027      0.00%      0.00% (Unspecified)
system.caches.Directory_Controller.I.GetM       140816      0.00%      0.00% (Unspecified)
system.caches.Directory_Controller.S.GetS        96470      0.00%      0.00% (Unspecified)
system.caches.Directory_Controller.S.GetM       151983      0.00%      0.00% (Unspecified)
system.caches.Directory_Controller.S.PutSNotLast        96192      0.00%      0.00% (Unspecified)
system.caches.Directory_Controller.S.PutSLast       192359      0.00%      0.00% (Unspecified)
system.caches.Directory_Controller.S.PutSLastWT       361476      0.00%      0.00% (Unspecified)
system.caches.Directory_Controller.M.GetS         4027      0.00%      0.00% (Unspecified)
system.caches.Directory_Controller.M.GetM          317      0.00%      0.00% (Unspecified)
system.caches.Directory_Controller.M.PutMOwner        79985      0.00%      0.00% (Unspecified)
system.caches.Directory_Controller.M.PutMOwnerWT       245883      0.00%      0.00% (Unspecified)
system.caches.Directory_Controller.M.PutMNonOwner            1      0.00%      0.00% (Unspecified)
system.caches.Directory_Controller.LLCOnly.GetS       360010      0.00%      0.00% (Unspecified)
system.caches.Directory_Controller.LLCOnly.GetM        33152      0.00%      0.00% (Unspecified)
system.caches.Directory_Controller.LLCOnly.Sync        34148      0.00%      0.00% (Unspecified)
system.caches.Directory_Controller.LLCOnly_m.LastMemAck       395624      0.00%      0.00% (Unspecified)
system.caches.Directory_Controller.S_m.MemData       346027      0.00%      0.00% (Unspecified)
system.caches.Directory_Controller.M_m.MemData       140816      0.00%      0.00% (Unspecified)
system.caches.Directory_Controller.MI_m.LastMemAck       245883      0.00%      0.00% (Unspecified)
system.caches.RequestType.LD.latency_hist_seqr::bucket_size          128                       (Unspecified)
system.caches.RequestType.LD.latency_hist_seqr::max_bucket         1279                       (Unspecified)
system.caches.RequestType.LD.latency_hist_seqr::samples     12151680                       (Unspecified)
system.caches.RequestType.LD.latency_hist_seqr::mean    16.890461                       (Unspecified)
system.caches.RequestType.LD.latency_hist_seqr::gmean     1.589961                       (Unspecified)
system.caches.RequestType.LD.latency_hist_seqr::stdev    77.000727                       (Unspecified)
system.caches.RequestType.LD.latency_hist_seqr |    11628251     95.69%     95.69% |      196461      1.62%     97.31% |      187087      1.54%     98.85% |       57595      0.47%     99.32% |       45950      0.38%     99.70% |       24508      0.20%     99.90% |        8828      0.07%     99.98% |        2885      0.02%    100.00% |         115      0.00%    100.00% |           0      0.00%    100.00% (Unspecified)
system.caches.RequestType.LD.latency_hist_seqr::total     12151680                       (Unspecified)
system.caches.RequestType.LD.hit_latency_hist_seqr::bucket_size            1                       (Unspecified)
system.caches.RequestType.LD.hit_latency_hist_seqr::max_bucket            9                       (Unspecified)
system.caches.RequestType.LD.hit_latency_hist_seqr::samples     10635910                       (Unspecified)
system.caches.RequestType.LD.hit_latency_hist_seqr::mean            1                       (Unspecified)
system.caches.RequestType.LD.hit_latency_hist_seqr::gmean            1                       (Unspecified)
system.caches.RequestType.LD.hit_latency_hist_seqr |           0      0.00%      0.00% |    10635910    100.00%    100.00% |           0      0.00%    100.00% |           0      0.00%    100.00% |           0      0.00%    100.00% |           0      0.00%    100.00% |           0      0.00%    100.00% |           0      0.00%    100.00% |           0      0.00%    100.00% |           0      0.00%    100.00% (Unspecified)
system.caches.RequestType.LD.hit_latency_hist_seqr::total     10635910                       (Unspecified)
system.caches.RequestType.LD.miss_latency_hist_seqr::bucket_size          128                       (Unspecified)
system.caches.RequestType.LD.miss_latency_hist_seqr::max_bucket         1279                       (Unspecified)
system.caches.RequestType.LD.miss_latency_hist_seqr::samples      1515770                       (Unspecified)
system.caches.RequestType.LD.miss_latency_hist_seqr::mean   128.391225                       (Unspecified)
system.caches.RequestType.LD.miss_latency_hist_seqr::gmean    41.160754                       (Unspecified)
system.caches.RequestType.LD.miss_latency_hist_seqr::stdev   182.561000                       (Unspecified)
system.caches.RequestType.LD.miss_latency_hist_seqr |      992341     65.47%     65.47% |      196461     12.96%     78.43% |      187087     12.34%     90.77% |       57595      3.80%     94.57% |       45950      3.03%     97.60% |       24508      1.62%     99.22% |        8828      0.58%     99.80% |        2885      0.19%     99.99% |         115      0.01%    100.00% |           0      0.00%    100.00% (Unspecified)
system.caches.RequestType.LD.miss_latency_hist_seqr::total      1515770                       (Unspecified)
system.caches.RequestType.ST.latency_hist_seqr::bucket_size          128                       (Unspecified)
system.caches.RequestType.ST.latency_hist_seqr::max_bucket         1279                       (Unspecified)
system.caches.RequestType.ST.latency_hist_seqr::samples      4682674                       (Unspecified)
system.caches.RequestType.ST.latency_hist_seqr::mean    16.845866                       (Unspecified)
system.caches.RequestType.ST.latency_hist_seqr::gmean     1.452123                       (Unspecified)
system.caches.RequestType.ST.latency_hist_seqr::stdev    81.194989                       (Unspecified)
system.caches.RequestType.ST.latency_hist_seqr |     4485568     95.79%     95.79% |       58498      1.25%     97.04% |      103262      2.21%     99.25% |        6486      0.14%     99.38% |        5430      0.12%     99.50% |        6018      0.13%     99.63% |        8514      0.18%     99.81% |        8880      0.19%    100.00% |          18      0.00%    100.00% |           0      0.00%    100.00% (Unspecified)
system.caches.RequestType.ST.latency_hist_seqr::total      4682674                       (Unspecified)
system.caches.RequestType.ST.hit_latency_hist_seqr::bucket_size            1                       (Unspecified)
system.caches.RequestType.ST.hit_latency_hist_seqr::max_bucket            9                       (Unspecified)
system.caches.RequestType.ST.hit_latency_hist_seqr::samples      4288206                       (Unspecified)
system.caches.RequestType.ST.hit_latency_hist_seqr::mean            1                       (Unspecified)
system.caches.RequestType.ST.hit_latency_hist_seqr::gmean            1                       (Unspecified)
system.caches.RequestType.ST.hit_latency_hist_seqr |           0      0.00%      0.00% |     4288206    100.00%    100.00% |           0      0.00%    100.00% |           0      0.00%    100.00% |           0      0.00%    100.00% |           0      0.00%    100.00% |           0      0.00%    100.00% |           0      0.00%    100.00% |           0      0.00%    100.00% |           0      0.00%    100.00% (Unspecified)
system.caches.RequestType.ST.hit_latency_hist_seqr::total      4288206                       (Unspecified)
system.caches.RequestType.ST.miss_latency_hist_seqr::bucket_size          128                       (Unspecified)
system.caches.RequestType.ST.miss_latency_hist_seqr::max_bucket         1279                       (Unspecified)
system.caches.RequestType.ST.miss_latency_hist_seqr::samples       394468                       (Unspecified)
system.caches.RequestType.ST.miss_latency_hist_seqr::mean   189.104041                       (Unspecified)
system.caches.RequestType.ST.miss_latency_hist_seqr::gmean    83.776111                       (Unspecified)
system.caches.RequestType.ST.miss_latency_hist_seqr::stdev   214.144290                       (Unspecified)
system.caches.RequestType.ST.miss_latency_hist_seqr |      197362     50.03%     50.03% |       58498     14.83%     64.86% |      103262     26.18%     91.04% |        6486      1.64%     92.68% |        5430      1.38%     94.06% |        6018      1.53%     95.59% |        8514      2.16%     97.74% |        8880      2.25%    100.00% |          18      0.00%    100.00% |           0      0.00%    100.00% (Unspecified)
system.caches.RequestType.ST.miss_latency_hist_seqr::total       394468                       (Unspecified)
system.caches.RequestType.IFETCH.latency_hist_seqr::bucket_size          128                       (Unspecified)
system.caches.RequestType.IFETCH.latency_hist_seqr::max_bucket         1279                       (Unspecified)
system.caches.RequestType.IFETCH.latency_hist_seqr::samples     69253956                       (Unspecified)
system.caches.RequestType.IFETCH.latency_hist_seqr::mean     1.619664                       (Unspecified)
system.caches.RequestType.IFETCH.latency_hist_seqr::gmean     1.015390                       (Unspecified)
system.caches.RequestType.IFETCH.latency_hist_seqr::stdev    15.979438                       (Unspecified)
system.caches.RequestType.IFETCH.latency_hist_seqr |    69141393     99.84%     99.84% |       45980      0.07%     99.90% |       30699      0.04%     99.95% |       15179      0.02%     99.97% |       11695      0.02%     99.99% |        5814      0.01%    100.00% |        2001      0.00%    100.00% |        1161      0.00%    100.00% |          34      0.00%    100.00% |           0      0.00%    100.00% (Unspecified)
system.caches.RequestType.IFETCH.latency_hist_seqr::total     69253956                       (Unspecified)
system.caches.RequestType.IFETCH.hit_latency_hist_seqr::bucket_size            1                       (Unspecified)
system.caches.RequestType.IFETCH.hit_latency_hist_seqr::max_bucket            9                       (Unspecified)
system.caches.RequestType.IFETCH.hit_latency_hist_seqr::samples     68998384                       (Unspecified)
system.caches.RequestType.IFETCH.hit_latency_hist_seqr::mean            1                       (Unspecified)
system.caches.RequestType.IFETCH.hit_latency_hist_seqr::gmean            1                       (Unspecified)
system.caches.RequestType.IFETCH.hit_latency_hist_seqr |           0      0.00%      0.00% |    68998384    100.00%    100.00% |           0      0.00%    100.00% |           0      0.00%    100.00% |           0      0.00%    100.00% |           0      0.00%    100.00% |           0      0.00%    100.00% |           0      0.00%    100.00% |           0      0.00%    100.00% |           0      0.00%    100.00% (Unspecified)
system.caches.RequestType.IFETCH.hit_latency_hist_seqr::total     68998384                       (Unspecified)
system.caches.RequestType.IFETCH.miss_latency_hist_seqr::bucket_size          128                       (Unspecified)
system.caches.RequestType.IFETCH.miss_latency_hist_seqr::max_bucket         1279                       (Unspecified)
system.caches.RequestType.IFETCH.miss_latency_hist_seqr::samples       255572                       (Unspecified)
system.caches.RequestType.IFETCH.miss_latency_hist_seqr::mean   168.914177                       (Unspecified)
system.caches.RequestType.IFETCH.miss_latency_hist_seqr::gmean    62.712671                       (Unspecified)
system.caches.RequestType.IFETCH.miss_latency_hist_seqr::stdev   202.733300                       (Unspecified)
system.caches.RequestType.IFETCH.miss_latency_hist_seqr |      143009     55.96%     55.96% |       45980     17.99%     73.95% |       30699     12.01%     85.96% |       15179      5.94%     91.90% |       11695      4.58%     96.47% |        5814      2.27%     98.75% |        2001      0.78%     99.53% |        1161      0.45%     99.99% |          34      0.01%    100.00% |           0      0.00%    100.00% (Unspecified)
system.caches.RequestType.IFETCH.miss_latency_hist_seqr::total       255572                       (Unspecified)
system.caches.RequestType.RMW_Read.latency_hist_seqr::bucket_size          128                       (Unspecified)
system.caches.RequestType.RMW_Read.latency_hist_seqr::max_bucket         1279                       (Unspecified)
system.caches.RequestType.RMW_Read.latency_hist_seqr::samples       140243                       (Unspecified)
system.caches.RequestType.RMW_Read.latency_hist_seqr::mean    23.497807                       (Unspecified)
system.caches.RequestType.RMW_Read.latency_hist_seqr::gmean     2.165616                       (Unspecified)
system.caches.RequestType.RMW_Read.latency_hist_seqr::stdev    74.479495                       (Unspecified)
system.caches.RequestType.RMW_Read.latency_hist_seqr |      129660     92.45%     92.45% |        5147      3.67%     96.12% |        5210      3.71%     99.84% |         121      0.09%     99.93% |          66      0.05%     99.97% |          24      0.02%     99.99% |          14      0.01%    100.00% |           1      0.00%    100.00% |           0      0.00%    100.00% |           0      0.00%    100.00% (Unspecified)
system.caches.RequestType.RMW_Read.latency_hist_seqr::total       140243                       (Unspecified)
system.caches.RequestType.RMW_Read.hit_latency_hist_seqr::bucket_size            1                       (Unspecified)
system.caches.RequestType.RMW_Read.hit_latency_hist_seqr::max_bucket            9                       (Unspecified)
system.caches.RequestType.RMW_Read.hit_latency_hist_seqr::samples       111250                       (Unspecified)
system.caches.RequestType.RMW_Read.hit_latency_hist_seqr::mean            1                       (Unspecified)
system.caches.RequestType.RMW_Read.hit_latency_hist_seqr::gmean            1                       (Unspecified)
system.caches.RequestType.RMW_Read.hit_latency_hist_seqr |           0      0.00%      0.00% |      111250    100.00%    100.00% |           0      0.00%    100.00% |           0      0.00%    100.00% |           0      0.00%    100.00% |           0      0.00%    100.00% |           0      0.00%    100.00% |           0      0.00%    100.00% |           0      0.00%    100.00% |           0      0.00%    100.00% (Unspecified)
system.caches.RequestType.RMW_Read.hit_latency_hist_seqr::total       111250                       (Unspecified)
system.caches.RequestType.RMW_Read.miss_latency_hist_seqr::bucket_size          128                       (Unspecified)
system.caches.RequestType.RMW_Read.miss_latency_hist_seqr::max_bucket         1279                       (Unspecified)
system.caches.RequestType.RMW_Read.miss_latency_hist_seqr::samples        28993                       (Unspecified)
system.caches.RequestType.RMW_Read.miss_latency_hist_seqr::mean   109.824889                       (Unspecified)
system.caches.RequestType.RMW_Read.miss_latency_hist_seqr::gmean    42.000285                       (Unspecified)
system.caches.RequestType.RMW_Read.miss_latency_hist_seqr::stdev   132.054522                       (Unspecified)
system.caches.RequestType.RMW_Read.miss_latency_hist_seqr |       18410     63.50%     63.50% |        5147     17.75%     81.25% |        5210     17.97%     99.22% |         121      0.42%     99.64% |          66      0.23%     99.87% |          24      0.08%     99.95% |          14      0.05%    100.00% |           1      0.00%    100.00% |           0      0.00%    100.00% |           0      0.00%    100.00% (Unspecified)
system.caches.RequestType.RMW_Read.miss_latency_hist_seqr::total        28993                       (Unspecified)
system.caches.RequestType.Locked_RMW_Read.latency_hist_seqr::bucket_size          128                       (Unspecified)
system.caches.RequestType.Locked_RMW_Read.latency_hist_seqr::max_bucket         1279                       (Unspecified)
system.caches.RequestType.Locked_RMW_Read.latency_hist_seqr::samples         4866                       (Unspecified)
system.caches.RequestType.Locked_RMW_Read.latency_hist_seqr::mean    32.551171                       (Unspecified)
system.caches.RequestType.Locked_RMW_Read.latency_hist_seqr::gmean     2.914911                       (Unspecified)
system.caches.RequestType.Locked_RMW_Read.latency_hist_seqr::stdev    97.191619                       (Unspecified)
system.caches.RequestType.Locked_RMW_Read.latency_hist_seqr |        4456     91.57%     91.57% |         219      4.50%     96.07% |          96      1.97%     98.05% |          50      1.03%     99.08% |          24      0.49%     99.57% |          12      0.25%     99.82% |           8      0.16%     99.98% |           1      0.02%    100.00% |           0      0.00%    100.00% |           0      0.00%    100.00% (Unspecified)
system.caches.RequestType.Locked_RMW_Read.latency_hist_seqr::total         4866                       (Unspecified)
system.caches.RequestType.Locked_RMW_Read.hit_latency_hist_seqr::bucket_size            1                       (Unspecified)
system.caches.RequestType.Locked_RMW_Read.hit_latency_hist_seqr::max_bucket            9                       (Unspecified)
system.caches.RequestType.Locked_RMW_Read.hit_latency_hist_seqr::samples         3572                       (Unspecified)
system.caches.RequestType.Locked_RMW_Read.hit_latency_hist_seqr::mean            1                       (Unspecified)
system.caches.RequestType.Locked_RMW_Read.hit_latency_hist_seqr::gmean            1                       (Unspecified)
system.caches.RequestType.Locked_RMW_Read.hit_latency_hist_seqr |           0      0.00%      0.00% |        3572    100.00%    100.00% |           0      0.00%    100.00% |           0      0.00%    100.00% |           0      0.00%    100.00% |           0      0.00%    100.00% |           0      0.00%    100.00% |           0      0.00%    100.00% |           0      0.00%    100.00% |           0      0.00%    100.00% (Unspecified)
system.caches.RequestType.Locked_RMW_Read.hit_latency_hist_seqr::total         3572                       (Unspecified)
system.caches.RequestType.Locked_RMW_Read.miss_latency_hist_seqr::bucket_size          128                       (Unspecified)
system.caches.RequestType.Locked_RMW_Read.miss_latency_hist_seqr::max_bucket         1279                       (Unspecified)
system.caches.RequestType.Locked_RMW_Read.miss_latency_hist_seqr::samples         1294                       (Unspecified)
system.caches.RequestType.Locked_RMW_Read.miss_latency_hist_seqr::mean   119.646059                       (Unspecified)
system.caches.RequestType.Locked_RMW_Read.miss_latency_hist_seqr::gmean    55.871768                       (Unspecified)
system.caches.RequestType.Locked_RMW_Read.miss_latency_hist_seqr::stdev   158.746813                       (Unspecified)
system.caches.RequestType.Locked_RMW_Read.miss_latency_hist_seqr |         884     68.32%     68.32% |         219     16.92%     85.24% |          96      7.42%     92.66% |          50      3.86%     96.52% |          24      1.85%     98.38% |          12      0.93%     99.30% |           8      0.62%     99.92% |           1      0.08%    100.00% |           0      0.00%    100.00% |           0      0.00%    100.00% (Unspecified)
system.caches.RequestType.Locked_RMW_Read.miss_latency_hist_seqr::total         1294                       (Unspecified)
system.caches.RequestType.Locked_RMW_Write.latency_hist_seqr::bucket_size            1                       (Unspecified)
system.caches.RequestType.Locked_RMW_Write.latency_hist_seqr::max_bucket            9                       (Unspecified)
system.caches.RequestType.Locked_RMW_Write.latency_hist_seqr::samples         4866                       (Unspecified)
system.caches.RequestType.Locked_RMW_Write.latency_hist_seqr::mean            1                       (Unspecified)
system.caches.RequestType.Locked_RMW_Write.latency_hist_seqr::gmean            1                       (Unspecified)
system.caches.RequestType.Locked_RMW_Write.latency_hist_seqr |           0      0.00%      0.00% |        4866    100.00%    100.00% |           0      0.00%    100.00% |           0      0.00%    100.00% |           0      0.00%    100.00% |           0      0.00%    100.00% |           0      0.00%    100.00% |           0      0.00%    100.00% |           0      0.00%    100.00% |           0      0.00%    100.00% (Unspecified)
system.caches.RequestType.Locked_RMW_Write.latency_hist_seqr::total         4866                       (Unspecified)
system.caches.RequestType.Locked_RMW_Write.hit_latency_hist_seqr::bucket_size            1                       (Unspecified)
system.caches.RequestType.Locked_RMW_Write.hit_latency_hist_seqr::max_bucket            9                       (Unspecified)
system.caches.RequestType.Locked_RMW_Write.hit_latency_hist_seqr::samples         4866                       (Unspecified)
system.caches.RequestType.Locked_RMW_Write.hit_latency_hist_seqr::mean            1                       (Unspecified)
system.caches.RequestType.Locked_RMW_Write.hit_latency_hist_seqr::gmean            1                       (Unspecified)
system.caches.RequestType.Locked_RMW_Write.hit_latency_hist_seqr |           0      0.00%      0.00% |        4866    100.00%    100.00% |           0      0.00%    100.00% |           0      0.00%    100.00% |           0      0.00%    100.00% |           0      0.00%    100.00% |           0      0.00%    100.00% |           0      0.00%    100.00% |           0      0.00%    100.00% |           0      0.00%    100.00% (Unspecified)
system.caches.RequestType.Locked_RMW_Write.hit_latency_hist_seqr::total         4866                       (Unspecified)
system.caches.controllers0.DCache.m_demand_hits            0                       # Number of cache demand hits (Unspecified)
system.caches.controllers0.DCache.m_demand_misses            0                       # Number of cache demand misses (Unspecified)
system.caches.controllers0.DCache.m_demand_accesses            0                       # Number of cache demand accesses (Unspecified)
system.caches.controllers0.ICache.m_demand_hits            0                       # Number of cache demand hits (Unspecified)
system.caches.controllers0.ICache.m_demand_misses            0                       # Number of cache demand misses (Unspecified)
system.caches.controllers0.ICache.m_demand_accesses            0                       # Number of cache demand accesses (Unspecified)
system.caches.controllers0.forwardFromL1.m_buf_msgs     0.001294                       # Average number of messages in buffer (Unspecified)
system.caches.controllers0.forwardFromL1.m_stall_time  4999.941761                       # Average number of cycles messages are stalled in this MB (Unspecified)
system.caches.controllers0.mandatoryQueue.m_buf_msgs     0.175681                       # Average number of messages in buffer (Unspecified)
system.caches.controllers0.mandatoryQueue.m_stall_time   999.999996                       # Average number of cycles messages are stalled in this MB (Unspecified)
system.caches.controllers0.power_state.pwrStateResidencyTicks::UNDEFINED 277598975000                       # Cumulative time (in ticks) in various power states (Tick)
system.caches.controllers0.requestToL1.m_buf_msgs     0.005832                       # Average number of messages in buffer (Unspecified)
system.caches.controllers0.requestToL1.m_stall_time   999.999993                       # Average number of cycles messages are stalled in this MB (Unspecified)
system.caches.controllers0.responseFromL1.m_buf_msgs     0.004505                       # Average number of messages in buffer (Unspecified)
system.caches.controllers0.responseFromL1.m_stall_time  4999.997640                       # Average number of cycles messages are stalled in this MB (Unspecified)
system.caches.controllers0.responseToL1.m_buf_msgs     0.000076                       # Average number of messages in buffer (Unspecified)
system.caches.controllers0.responseToL1.m_stall_time   999.942982                       # Average number of cycles messages are stalled in this MB (Unspecified)
system.caches.controllers0.xyzStatsObject.power_state.pwrStateResidencyTicks::UNDEFINED 277598975000                       # Cumulative time (in ticks) in various power states (Tick)
system.caches.controllers1.DCache.m_demand_hits            0                       # Number of cache demand hits (Unspecified)
system.caches.controllers1.DCache.m_demand_misses            0                       # Number of cache demand misses (Unspecified)
system.caches.controllers1.DCache.m_demand_accesses            0                       # Number of cache demand accesses (Unspecified)
system.caches.controllers1.ICache.m_demand_hits            0                       # Number of cache demand hits (Unspecified)
system.caches.controllers1.ICache.m_demand_misses            0                       # Number of cache demand misses (Unspecified)
system.caches.controllers1.ICache.m_demand_accesses            0                       # Number of cache demand accesses (Unspecified)
system.caches.controllers1.forwardFromL1.m_buf_msgs     0.000355                       # Average number of messages in buffer (Unspecified)
system.caches.controllers1.forwardFromL1.m_stall_time  1508.646597                       # Average number of cycles messages are stalled in this MB (Unspecified)
system.caches.controllers1.mandatoryQueue.m_buf_msgs     0.041058                       # Average number of messages in buffer (Unspecified)
system.caches.controllers1.mandatoryQueue.m_stall_time   301.756968                       # Average number of cycles messages are stalled in this MB (Unspecified)
system.caches.controllers1.power_state.pwrStateResidencyTicks::UNDEFINED 277598975000                       # Cumulative time (in ticks) in various power states (Tick)
system.caches.controllers1.requestToL1.m_buf_msgs     0.001278                       # Average number of messages in buffer (Unspecified)
system.caches.controllers1.requestToL1.m_stall_time   301.756964                       # Average number of cycles messages are stalled in this MB (Unspecified)
system.caches.controllers1.responseFromL1.m_buf_msgs     0.001020                       # Average number of messages in buffer (Unspecified)
system.caches.controllers1.responseFromL1.m_stall_time  1508.784335                       # Average number of cycles messages are stalled in this MB (Unspecified)
system.caches.controllers1.responseToL1.m_buf_msgs     0.000022                       # Average number of messages in buffer (Unspecified)
system.caches.controllers1.responseToL1.m_stall_time   301.617169                       # Average number of cycles messages are stalled in this MB (Unspecified)
system.caches.controllers1.xyzStatsObject.power_state.pwrStateResidencyTicks::UNDEFINED 277598975000                       # Cumulative time (in ticks) in various power states (Tick)
system.caches.controllers2.DCache.m_demand_hits            0                       # Number of cache demand hits (Unspecified)
system.caches.controllers2.DCache.m_demand_misses            0                       # Number of cache demand misses (Unspecified)
system.caches.controllers2.DCache.m_demand_accesses            0                       # Number of cache demand accesses (Unspecified)
system.caches.controllers2.ICache.m_demand_hits            0                       # Number of cache demand hits (Unspecified)
system.caches.controllers2.ICache.m_demand_misses            0                       # Number of cache demand misses (Unspecified)
system.caches.controllers2.ICache.m_demand_accesses            0                       # Number of cache demand accesses (Unspecified)
system.caches.controllers2.forwardFromL1.m_buf_msgs     0.009682                       # Average number of messages in buffer (Unspecified)
system.caches.controllers2.forwardFromL1.m_stall_time  1507.601766                       # Average number of cycles messages are stalled in this MB (Unspecified)
system.caches.controllers2.forwardFromL1.m_stall_count            1                       # Number of times messages were stalled (Unspecified)
system.caches.controllers2.mandatoryQueue.m_buf_msgs     0.045250                       # Average number of messages in buffer (Unspecified)
system.caches.controllers2.mandatoryQueue.m_stall_time   301.540044                       # Average number of cycles messages are stalled in this MB (Unspecified)
system.caches.controllers2.power_state.pwrStateResidencyTicks::UNDEFINED 277598975000                       # Cumulative time (in ticks) in various power states (Tick)
system.caches.controllers2.requestToL1.m_buf_msgs     0.001550                       # Average number of messages in buffer (Unspecified)
system.caches.controllers2.requestToL1.m_stall_time   301.540040                       # Average number of cycles messages are stalled in this MB (Unspecified)
system.caches.controllers2.responseFromL1.m_buf_msgs     0.001217                       # Average number of messages in buffer (Unspecified)
system.caches.controllers2.responseFromL1.m_stall_time  1507.699713                       # Average number of cycles messages are stalled in this MB (Unspecified)
system.caches.controllers2.responseToL1.m_buf_msgs     0.000021                       # Average number of messages in buffer (Unspecified)
system.caches.controllers2.responseToL1.m_stall_time   301.509186                       # Average number of cycles messages are stalled in this MB (Unspecified)
system.caches.controllers2.xyzStatsObject.power_state.pwrStateResidencyTicks::UNDEFINED 277598975000                       # Cumulative time (in ticks) in various power states (Tick)
system.caches.controllers3.DCache.m_demand_hits            0                       # Number of cache demand hits (Unspecified)
system.caches.controllers3.DCache.m_demand_misses            0                       # Number of cache demand misses (Unspecified)
system.caches.controllers3.DCache.m_demand_accesses            0                       # Number of cache demand accesses (Unspecified)
system.caches.controllers3.ICache.m_demand_hits            0                       # Number of cache demand hits (Unspecified)
system.caches.controllers3.ICache.m_demand_misses            0                       # Number of cache demand misses (Unspecified)
system.caches.controllers3.ICache.m_demand_accesses            0                       # Number of cache demand accesses (Unspecified)
system.caches.controllers3.forwardFromL1.m_buf_msgs     0.000415                       # Average number of messages in buffer (Unspecified)
system.caches.controllers3.forwardFromL1.m_stall_time  1506.445375                       # Average number of cycles messages are stalled in this MB (Unspecified)
system.caches.controllers3.mandatoryQueue.m_buf_msgs     0.048670                       # Average number of messages in buffer (Unspecified)
system.caches.controllers3.mandatoryQueue.m_stall_time   301.328976                       # Average number of cycles messages are stalled in this MB (Unspecified)
system.caches.controllers3.power_state.pwrStateResidencyTicks::UNDEFINED 277598975000                       # Cumulative time (in ticks) in various power states (Tick)
system.caches.controllers3.requestToL1.m_buf_msgs     0.001469                       # Average number of messages in buffer (Unspecified)
system.caches.controllers3.requestToL1.m_stall_time   301.328973                       # Average number of cycles messages are stalled in this MB (Unspecified)
system.caches.controllers3.responseFromL1.m_buf_msgs     0.001169                       # Average number of messages in buffer (Unspecified)
system.caches.controllers3.responseFromL1.m_stall_time  1506.642541                       # Average number of cycles messages are stalled in this MB (Unspecified)
system.caches.controllers3.responseToL1.m_buf_msgs     0.000024                       # Average number of messages in buffer (Unspecified)
system.caches.controllers3.responseToL1.m_stall_time   301.285655                       # Average number of cycles messages are stalled in this MB (Unspecified)
system.caches.controllers3.xyzStatsObject.power_state.pwrStateResidencyTicks::UNDEFINED 277598975000                       # Cumulative time (in ticks) in various power states (Tick)
system.caches.controllers4.cacheMemory.m_demand_hits            0                       # Number of cache demand hits (Unspecified)
system.caches.controllers4.cacheMemory.m_demand_misses            0                       # Number of cache demand misses (Unspecified)
system.caches.controllers4.cacheMemory.m_demand_accesses            0                       # Number of cache demand accesses (Unspecified)
system.caches.controllers4.forwardFromDir.m_buf_msgs     0.002000                       # Average number of messages in buffer (Unspecified)
system.caches.controllers4.forwardFromDir.m_stall_time  5185.869815                       # Average number of cycles messages are stalled in this MB (Unspecified)
system.caches.controllers4.forwardFromDir.m_stall_count         1376                       # Number of times messages were stalled (Unspecified)
system.caches.controllers4.forwardToL0.m_buf_msgs     0.001294                       # Average number of messages in buffer (Unspecified)
system.caches.controllers4.forwardToL0.m_stall_time   999.967633                       # Average number of cycles messages are stalled in this MB (Unspecified)
system.caches.controllers4.power_state.pwrStateResidencyTicks::UNDEFINED 277598975000                       # Cumulative time (in ticks) in various power states (Tick)
system.caches.controllers4.requestFromL0.m_buf_msgs     0.062338                       # Average number of messages in buffer (Unspecified)
system.caches.controllers4.requestFromL0.m_stall_time 27955.339536                       # Average number of cycles messages are stalled in this MB (Unspecified)
system.caches.controllers4.requestFromL0.m_stall_count       559691                       # Number of times messages were stalled (Unspecified)
system.caches.controllers4.requestToDir.m_buf_msgs     0.004123                       # Average number of messages in buffer (Unspecified)
system.caches.controllers4.requestToDir.m_stall_time   999.999975                       # Average number of cycles messages are stalled in this MB (Unspecified)
system.caches.controllers4.responseFromDirOrSibling.m_buf_msgs     0.002178                       # Average number of messages in buffer (Unspecified)
system.caches.controllers4.responseFromDirOrSibling.m_stall_time 12965.280455                       # Average number of cycles messages are stalled in this MB (Unspecified)
system.caches.controllers4.responseFromL0.m_buf_msgs     0.000076                       # Average number of messages in buffer (Unspecified)
system.caches.controllers4.responseFromL0.m_stall_time  4999.714840                       # Average number of cycles messages are stalled in this MB (Unspecified)
system.caches.controllers4.responseToDirOrSibling.m_buf_msgs     0.000006                       # Average number of messages in buffer (Unspecified)
system.caches.controllers4.responseToDirOrSibling.m_stall_time   301.756435                       # Average number of cycles messages are stalled in this MB (Unspecified)
system.caches.controllers4.responseToL0.m_buf_msgs     0.004505                       # Average number of messages in buffer (Unspecified)
system.caches.controllers4.responseToL0.m_stall_time   999.999543                       # Average number of cycles messages are stalled in this MB (Unspecified)
system.caches.controllers4.xyzStatsObject.power_state.pwrStateResidencyTicks::UNDEFINED 277598975000                       # Cumulative time (in ticks) in various power states (Tick)
system.caches.controllers5.cacheMemory.m_demand_hits            0                       # Number of cache demand hits (Unspecified)
system.caches.controllers5.cacheMemory.m_demand_misses            0                       # Number of cache demand misses (Unspecified)
system.caches.controllers5.cacheMemory.m_demand_accesses            0                       # Number of cache demand accesses (Unspecified)
system.caches.controllers5.forwardFromDir.m_buf_msgs     0.000526                       # Average number of messages in buffer (Unspecified)
system.caches.controllers5.forwardFromDir.m_stall_time  1672.042467                       # Average number of cycles messages are stalled in this MB (Unspecified)
system.caches.controllers5.forwardFromDir.m_stall_count         1246                       # Number of times messages were stalled (Unspecified)
system.caches.controllers5.forwardToL0.m_buf_msgs     0.000355                       # Average number of messages in buffer (Unspecified)
system.caches.controllers5.forwardToL0.m_stall_time   301.714072                       # Average number of cycles messages are stalled in this MB (Unspecified)
system.caches.controllers5.power_state.pwrStateResidencyTicks::UNDEFINED 277598975000                       # Cumulative time (in ticks) in various power states (Tick)
system.caches.controllers5.requestFromL0.m_buf_msgs     0.043593                       # Average number of messages in buffer (Unspecified)
system.caches.controllers5.requestFromL0.m_stall_time 18936.045553                       # Average number of cycles messages are stalled in this MB (Unspecified)
system.caches.controllers5.requestFromL0.m_stall_count       137662                       # Number of times messages were stalled (Unspecified)
system.caches.controllers5.requestToDir.m_buf_msgs     0.001060                       # Average number of messages in buffer (Unspecified)
system.caches.controllers5.requestToDir.m_stall_time   301.756946                       # Average number of cycles messages are stalled in this MB (Unspecified)
system.caches.controllers5.responseFromDirOrSibling.m_buf_msgs     0.000584                       # Average number of messages in buffer (Unspecified)
system.caches.controllers5.responseFromDirOrSibling.m_stall_time  3894.424156                       # Average number of cycles messages are stalled in this MB (Unspecified)
system.caches.controllers5.responseFromL0.m_buf_msgs     0.000022                       # Average number of messages in buffer (Unspecified)
system.caches.controllers5.responseFromL0.m_stall_time  1508.085774                       # Average number of cycles messages are stalled in this MB (Unspecified)
system.caches.controllers5.responseToDirOrSibling.m_buf_msgs     0.000005                       # Average number of messages in buffer (Unspecified)
system.caches.controllers5.responseToDirOrSibling.m_stall_time   301.522547                       # Average number of cycles messages are stalled in this MB (Unspecified)
system.caches.controllers5.responseToL0.m_buf_msgs     0.001020                       # Average number of messages in buffer (Unspecified)
system.caches.controllers5.responseToL0.m_stall_time   301.756881                       # Average number of cycles messages are stalled in this MB (Unspecified)
system.caches.controllers5.xyzStatsObject.power_state.pwrStateResidencyTicks::UNDEFINED 277598975000                       # Cumulative time (in ticks) in various power states (Tick)
system.caches.controllers6.cacheMemory.m_demand_hits            0                       # Number of cache demand hits (Unspecified)
system.caches.controllers6.cacheMemory.m_demand_misses            0                       # Number of cache demand misses (Unspecified)
system.caches.controllers6.cacheMemory.m_demand_accesses            0                       # Number of cache demand accesses (Unspecified)
system.caches.controllers6.forwardFromDir.m_buf_msgs     0.000585                       # Average number of messages in buffer (Unspecified)
system.caches.controllers6.forwardFromDir.m_stall_time  1585.126678                       # Average number of cycles messages are stalled in this MB (Unspecified)
system.caches.controllers6.forwardFromDir.m_stall_count          971                       # Number of times messages were stalled (Unspecified)
system.caches.controllers6.forwardToL0.m_buf_msgs     0.000421                       # Average number of messages in buffer (Unspecified)
system.caches.controllers6.forwardToL0.m_stall_time   301.509204                       # Average number of cycles messages are stalled in this MB (Unspecified)
system.caches.controllers6.power_state.pwrStateResidencyTicks::UNDEFINED 277598975000                       # Cumulative time (in ticks) in various power states (Tick)
system.caches.controllers6.requestFromL0.m_buf_msgs     0.045955                       # Average number of messages in buffer (Unspecified)
system.caches.controllers6.requestFromL0.m_stall_time 19586.426650                       # Average number of cycles messages are stalled in this MB (Unspecified)
system.caches.controllers6.requestFromL0.m_stall_count       157032                       # Number of times messages were stalled (Unspecified)
system.caches.controllers6.requestToDir.m_buf_msgs     0.001203                       # Average number of messages in buffer (Unspecified)
system.caches.controllers6.requestToDir.m_stall_time   301.540022                       # Average number of cycles messages are stalled in this MB (Unspecified)
system.caches.controllers6.responseFromDirOrSibling.m_buf_msgs     0.000657                       # Average number of messages in buffer (Unspecified)
system.caches.controllers6.responseFromDirOrSibling.m_stall_time  3900.046360                       # Average number of cycles messages are stalled in this MB (Unspecified)
system.caches.controllers6.responseFromL0.m_buf_msgs     0.000021                       # Average number of messages in buffer (Unspecified)
system.caches.controllers6.responseFromL0.m_stall_time  1507.555941                       # Average number of cycles messages are stalled in this MB (Unspecified)
system.caches.controllers6.responseToDirOrSibling.m_buf_msgs     0.000004                       # Average number of messages in buffer (Unspecified)
system.caches.controllers6.responseToDirOrSibling.m_stall_time   301.506747                       # Average number of cycles messages are stalled in this MB (Unspecified)
system.caches.controllers6.responseToL0.m_buf_msgs     0.001217                       # Average number of messages in buffer (Unspecified)
system.caches.controllers6.responseToL0.m_stall_time   301.539957                       # Average number of cycles messages are stalled in this MB (Unspecified)
system.caches.controllers6.xyzStatsObject.power_state.pwrStateResidencyTicks::UNDEFINED 277598975000                       # Cumulative time (in ticks) in various power states (Tick)
system.caches.controllers7.cacheMemory.m_demand_hits            0                       # Number of cache demand hits (Unspecified)
system.caches.controllers7.cacheMemory.m_demand_misses            0                       # Number of cache demand misses (Unspecified)
system.caches.controllers7.cacheMemory.m_demand_accesses            0                       # Number of cache demand accesses (Unspecified)
system.caches.controllers7.forwardFromDir.m_buf_msgs     0.000560                       # Average number of messages in buffer (Unspecified)
system.caches.controllers7.forwardFromDir.m_stall_time  1602.938357                       # Average number of cycles messages are stalled in this MB (Unspecified)
system.caches.controllers7.forwardFromDir.m_stall_count          280                       # Number of times messages were stalled (Unspecified)
system.caches.controllers7.forwardToL0.m_buf_msgs     0.000415                       # Average number of messages in buffer (Unspecified)
system.caches.controllers7.forwardToL0.m_stall_time   301.285673                       # Average number of cycles messages are stalled in this MB (Unspecified)
system.caches.controllers7.power_state.pwrStateResidencyTicks::UNDEFINED 277598975000                       # Cumulative time (in ticks) in various power states (Tick)
system.caches.controllers7.requestFromL0.m_buf_msgs     0.044075                       # Average number of messages in buffer (Unspecified)
system.caches.controllers7.requestFromL0.m_stall_time 18933.119980                       # Average number of cycles messages are stalled in this MB (Unspecified)
system.caches.controllers7.requestFromL0.m_stall_count       158544                       # Number of times messages were stalled (Unspecified)
system.caches.controllers7.requestToDir.m_buf_msgs     0.001211                       # Average number of messages in buffer (Unspecified)
system.caches.controllers7.requestToDir.m_stall_time   301.328955                       # Average number of cycles messages are stalled in this MB (Unspecified)
system.caches.controllers7.responseFromDirOrSibling.m_buf_msgs     0.000663                       # Average number of messages in buffer (Unspecified)
system.caches.controllers7.responseFromDirOrSibling.m_stall_time  3913.375055                       # Average number of cycles messages are stalled in this MB (Unspecified)
system.caches.controllers7.responseFromL0.m_buf_msgs     0.000024                       # Average number of messages in buffer (Unspecified)
system.caches.controllers7.responseFromL0.m_stall_time  1506.428203                       # Average number of cycles messages are stalled in this MB (Unspecified)
system.caches.controllers7.responseToDirOrSibling.m_buf_msgs     0.000001                       # Average number of messages in buffer (Unspecified)
system.caches.controllers7.responseToDirOrSibling.m_stall_time   301.275475                       # Average number of cycles messages are stalled in this MB (Unspecified)
system.caches.controllers7.responseToL0.m_buf_msgs     0.001169                       # Average number of messages in buffer (Unspecified)
system.caches.controllers7.responseToL0.m_stall_time   301.328523                       # Average number of cycles messages are stalled in this MB (Unspecified)
system.caches.controllers7.xyzStatsObject.power_state.pwrStateResidencyTicks::UNDEFINED 277598975000                       # Cumulative time (in ticks) in various power states (Tick)
system.caches.controllers8.cacheMemory.m_demand_hits            0                       # Number of cache demand hits (Unspecified)
system.caches.controllers8.cacheMemory.m_demand_misses            0                       # Number of cache demand misses (Unspecified)
system.caches.controllers8.cacheMemory.m_demand_accesses            0                       # Number of cache demand accesses (Unspecified)
system.caches.controllers8.forwardToCache.m_buf_msgs     0.004079                       # Average number of messages in buffer (Unspecified)
system.caches.controllers8.forwardToCache.m_stall_time   999.985353                       # Average number of cycles messages are stalled in this MB (Unspecified)
system.caches.controllers8.power_state.pwrStateResidencyTicks::UNDEFINED 277598975000                       # Cumulative time (in ticks) in various power states (Tick)
system.caches.controllers8.requestFromCache.m_not_avail_count       651738                       # Number of times this buffer did not have N slots available (Unspecified)
system.caches.controllers8.requestFromCache.m_buf_msgs     0.007596                       # Average number of messages in buffer (Unspecified)
system.caches.controllers8.requestFromCache.m_stall_time 108656.571625                       # Average number of cycles messages are stalled in this MB (Unspecified)
system.caches.controllers8.requestFromCache.m_occupancy     0.007596                       # Average occupancy of buffer capacity (Unspecified)
system.caches.controllers8.requestToMemory.m_buf_msgs     0.004065                       # Average number of messages in buffer (Unspecified)
system.caches.controllers8.requestToMemory.m_stall_time   999.999957                       # Average number of cycles messages are stalled in this MB (Unspecified)
system.caches.controllers8.responseFromMemory.m_buf_msgs     0.004065                       # Average number of messages in buffer (Unspecified)
system.caches.controllers8.responseFromMemory.m_stall_time   999.999593                       # Average number of cycles messages are stalled in this MB (Unspecified)
system.caches.controllers8.responseToCache.m_buf_msgs     0.036586                       # Average number of messages in buffer (Unspecified)
system.caches.controllers8.responseToCache.m_stall_time  8999.996045                       # Average number of cycles messages are stalled in this MB (Unspecified)
system.caches.controllers8.xyzCacheMemory.m_demand_hits            0                       # Number of cache demand hits (Unspecified)
system.caches.controllers8.xyzCacheMemory.m_demand_misses            0                       # Number of cache demand misses (Unspecified)
system.caches.controllers8.xyzCacheMemory.m_demand_accesses            0                       # Number of cache demand accesses (Unspecified)
system.caches.controllers8.xyzStatsObject.power_state.pwrStateResidencyTicks::UNDEFINED 277598975000                       # Cumulative time (in ticks) in various power states (Tick)
system.caches.network.msg_count.Control      11298164                       (Unspecified)
system.caches.network.msg_byte.Control       90385312                       (Unspecified)
system.caches.network.msg_count.Data          7336418                       (Unspecified)
system.caches.network.msg_byte.Data         528222096                       (Unspecified)
system.caches.network.msg_count.Response_Data      1283230                       (Unspecified)
system.caches.network.msg_byte.Response_Data     92392560                       (Unspecified)
system.caches.network.int_link_buffers102.m_buf_msgs     0.000421                       # Average number of messages in buffer (Unspecified)
system.caches.network.int_link_buffers102.m_stall_time   904.574936                       # Average number of cycles messages are stalled in this MB (Unspecified)
system.caches.network.int_link_buffers103.m_buf_msgs     0.001217                       # Average number of messages in buffer (Unspecified)
system.caches.network.int_link_buffers103.m_stall_time   904.619850                       # Average number of cycles messages are stalled in this MB (Unspecified)
system.caches.network.int_link_buffers107.m_buf_msgs     0.000002                       # Average number of messages in buffer (Unspecified)
system.caches.network.int_link_buffers107.m_stall_time   904.115597                       # Average number of cycles messages are stalled in this MB (Unspecified)
system.caches.network.int_link_buffers11.m_buf_msgs     0.001278                       # Average number of messages in buffer (Unspecified)
system.caches.network.int_link_buffers11.m_stall_time  1216.941129                       # Average number of cycles messages are stalled in this MB (Unspecified)
system.caches.network.int_link_buffers114.m_buf_msgs     0.000002                       # Average number of messages in buffer (Unspecified)
system.caches.network.int_link_buffers114.m_stall_time   904.520220                       # Average number of cycles messages are stalled in this MB (Unspecified)
system.caches.network.int_link_buffers12.m_buf_msgs     0.000022                       # Average number of messages in buffer (Unspecified)
system.caches.network.int_link_buffers12.m_stall_time   904.851486                       # Average number of cycles messages are stalled in this MB (Unspecified)
system.caches.network.int_link_buffers121.m_buf_msgs     0.000001                       # Average number of messages in buffer (Unspecified)
system.caches.network.int_link_buffers121.m_stall_time   893.126716                       # Average number of cycles messages are stalled in this MB (Unspecified)
system.caches.network.int_link_buffers126.m_buf_msgs     0.130871                       # Average number of messages in buffer (Unspecified)
system.caches.network.int_link_buffers126.m_stall_time 49646.803858                       # Average number of cycles messages are stalled in this MB (Unspecified)
[...]
system.caches.controllers2.xyzStatsObjectlatency::underflows            0      0.00%      0.00% # Mem access latency (Unspecified)
system.caches.controllers2.xyzStatsObjectlatency::0-49999       337764    100.00%    100.00% # Mem access latency (Unspecified)
system.caches.controllers2.xyzStatsObjectlatency::50000-99999            0      0.00%    100.00% # Mem access latency (Unspecified)
system.caches.controllers2.xyzStatsObjectlatency::100000            0      0.00%    100.00% # Mem access latency (Unspecified)
system.caches.controllers2.xyzStatsObjectlatency::overflows            0      0.00%    100.00% # Mem access latency (Unspecified)
system.caches.controllers2.xyzStatsObjectlatency::min_value           10                       # Mem access latency (Unspecified)
system.caches.controllers2.xyzStatsObjectlatency::max_value         1121                       # Mem access latency (Unspecified)
system.caches.controllers2.xyzStatsObjectlatency::total       337764                       # Mem access latency (Unspecified)
system.caches.controllers3.xyzStatsObject.total_put            0                       # Total number of put (PutM + PutS) (Unspecified)
system.caches.controllers3.xyzStatsObject.total_put_as_wt            0                       # Total number of put as write through (Unspecified)
system.caches.controllers3.xyzStatsObject.total_putm            0                       # Total number of PutM (Unspecified)
system.caches.controllers3.xyzStatsObject.total_putm_as_wt            0                       # Total number of PutM as write through (Unspecified)
system.caches.controllers3.xyzStatsObject.total_puts            0                       # Total number of PutS (Unspecified)
system.caches.controllers3.xyzStatsObject.total_puts_as_wt            0                       # Total number of PutS as write through (Unspecified)
system.caches.controllers3.xyzStatsObject.total_repl            0                       # Total Replacement (Unspecified)
system.caches.controllers3.xyzStatsObject.total_repl_llc            0                       # Total Replacement of LLC line (Unspecified)
system.caches.controllers3.xyzStatsObject.total_repl_owned            0                       # Total Replacement of owned line (Unspecified)
system.caches.controllers3.xyzStatsObject.total_repl_shared            0                       # Total Replacement of shared line (Unspecified)
system.caches.controllers3.xyzStatsObject.wt_putRatio          nan                       # WT / Put (Unspecified)
system.caches.controllers3.xyzStatsObject.wt_putmRatio          nan                       # PutM WT / PutM (Unspecified)
system.caches.controllers3.xyzStatsObject.wt_putsRatio          nan                       # PutS WT / PutS (Unspecified)
system.caches.controllers3.xyzStatsObjectlatency::samples       324587                       # Mem access latency (Unspecified)
system.caches.controllers3.xyzStatsObjectlatency::mean   154.010848                       # Mem access latency (Unspecified)
system.caches.controllers3.xyzStatsObjectlatency::stdev   220.840977                       # Mem access latency (Unspecified)
system.caches.controllers3.xyzStatsObjectlatency::underflows            0      0.00%      0.00% # Mem access latency (Unspecified)
system.caches.controllers3.xyzStatsObjectlatency::0-49999       324587    100.00%    100.00% # Mem access latency (Unspecified)
system.caches.controllers3.xyzStatsObjectlatency::50000-99999            0      0.00%    100.00% # Mem access latency (Unspecified)
system.caches.controllers3.xyzStatsObjectlatency::100000            0      0.00%    100.00% # Mem access latency (Unspecified)
system.caches.controllers3.xyzStatsObjectlatency::overflows            0      0.00%    100.00% # Mem access latency (Unspecified)
system.caches.controllers3.xyzStatsObjectlatency::min_value           10                       # Mem access latency (Unspecified)
system.caches.controllers3.xyzStatsObjectlatency::max_value         1112                       # Mem access latency (Unspecified)
system.caches.controllers3.xyzStatsObjectlatency::total       324587                       # Mem access latency (Unspecified)
system.caches.controllers4.xyzStatsObject.total_put            0                       # Total number of put (PutM + PutS) (Unspecified)
system.caches.controllers4.xyzStatsObject.total_put_as_wt            0                       # Total number of put as write through (Unspecified)
system.caches.controllers4.xyzStatsObject.total_putm            0                       # Total number of PutM (Unspecified)
system.caches.controllers4.xyzStatsObject.total_putm_as_wt            0                       # Total number of PutM as write through (Unspecified)
system.caches.controllers4.xyzStatsObject.total_puts            0                       # Total number of PutS (Unspecified)
system.caches.controllers4.xyzStatsObject.total_puts_as_wt            0                       # Total number of PutS as write through (Unspecified)
system.caches.controllers4.xyzStatsObject.total_repl            0                       # Total Replacement (Unspecified)
system.caches.controllers4.xyzStatsObject.total_repl_llc            0                       # Total Replacement of LLC line (Unspecified)
system.caches.controllers4.xyzStatsObject.total_repl_owned            0                       # Total Replacement of owned line (Unspecified)
system.caches.controllers4.xyzStatsObject.total_repl_shared            0                       # Total Replacement of shared line (Unspecified)
system.caches.controllers4.xyzStatsObject.wt_putRatio          nan                       # WT / Put (Unspecified)
system.caches.controllers4.xyzStatsObject.wt_putmRatio          nan                       # PutM WT / PutM (Unspecified)
system.caches.controllers4.xyzStatsObject.wt_putsRatio          nan                       # PutS WT / PutS (Unspecified)
system.caches.controllers4.xyzStatsObjectlatency::samples       604594                       # Mem access latency (Unspecified)
system.caches.controllers4.xyzStatsObjectlatency::mean   224.543429                       # Mem access latency (Unspecified)
system.caches.controllers4.xyzStatsObjectlatency::stdev   122.772170                       # Mem access latency (Unspecified)
system.caches.controllers4.xyzStatsObjectlatency::underflows            0      0.00%      0.00% # Mem access latency (Unspecified)
system.caches.controllers4.xyzStatsObjectlatency::0-49999       604594    100.00%    100.00% # Mem access latency (Unspecified)
system.caches.controllers4.xyzStatsObjectlatency::50000-99999            0      0.00%    100.00% # Mem access latency (Unspecified)
system.caches.controllers4.xyzStatsObjectlatency::100000            0      0.00%    100.00% # Mem access latency (Unspecified)
system.caches.controllers4.xyzStatsObjectlatency::overflows            0      0.00%    100.00% # Mem access latency (Unspecified)
system.caches.controllers4.xyzStatsObjectlatency::min_value           15                       # Mem access latency (Unspecified)
system.caches.controllers4.xyzStatsObjectlatency::max_value          737                       # Mem access latency (Unspecified)
system.caches.controllers4.xyzStatsObjectlatency::total       604594                       # Mem access latency (Unspecified)
system.caches.controllers5.xyzStatsObject.total_put            0                       # Total number of put (PutM + PutS) (Unspecified)
system.caches.controllers5.xyzStatsObject.total_put_as_wt            0                       # Total number of put as write through (Unspecified)
system.caches.controllers5.xyzStatsObject.total_putm            0                       # Total number of PutM (Unspecified)
system.caches.controllers5.xyzStatsObject.total_putm_as_wt            0                       # Total number of PutM as write through (Unspecified)
system.caches.controllers5.xyzStatsObject.total_puts            0                       # Total number of PutS (Unspecified)
system.caches.controllers5.xyzStatsObject.total_puts_as_wt            0                       # Total number of PutS as write through (Unspecified)
system.caches.controllers5.xyzStatsObject.total_repl            0                       # Total Replacement (Unspecified)
system.caches.controllers5.xyzStatsObject.total_repl_llc            0                       # Total Replacement of LLC line (Unspecified)
system.caches.controllers5.xyzStatsObject.total_repl_owned            0                       # Total Replacement of owned line (Unspecified)
system.caches.controllers5.xyzStatsObject.total_repl_shared            0                       # Total Replacement of shared line (Unspecified)
system.caches.controllers5.xyzStatsObject.wt_putRatio          nan                       # WT / Put (Unspecified)
system.caches.controllers5.xyzStatsObject.wt_putmRatio          nan                       # PutM WT / PutM (Unspecified)
system.caches.controllers5.xyzStatsObject.wt_putsRatio          nan                       # PutS WT / PutS (Unspecified)
system.caches.controllers5.xyzStatsObjectlatency::samples       162037                       # Mem access latency (Unspecified)
system.caches.controllers5.xyzStatsObjectlatency::mean   204.559520                       # Mem access latency (Unspecified)
system.caches.controllers5.xyzStatsObjectlatency::stdev   185.432551                       # Mem access latency (Unspecified)
system.caches.controllers5.xyzStatsObjectlatency::underflows            0      0.00%      0.00% # Mem access latency (Unspecified)
system.caches.controllers5.xyzStatsObjectlatency::0-49999       162037    100.00%    100.00% # Mem access latency (Unspecified)
system.caches.controllers5.xyzStatsObjectlatency::50000-99999            0      0.00%    100.00% # Mem access latency (Unspecified)
system.caches.controllers5.xyzStatsObjectlatency::100000            0      0.00%    100.00% # Mem access latency (Unspecified)
system.caches.controllers5.xyzStatsObjectlatency::overflows            0      0.00%    100.00% # Mem access latency (Unspecified)
system.caches.controllers5.xyzStatsObjectlatency::min_value           15                       # Mem access latency (Unspecified)
system.caches.controllers5.xyzStatsObjectlatency::max_value          740                       # Mem access latency (Unspecified)
system.caches.controllers5.xyzStatsObjectlatency::total       162037                       # Mem access latency (Unspecified)
system.caches.controllers6.xyzStatsObject.total_put            0                       # Total number of put (PutM + PutS) (Unspecified)
system.caches.controllers6.xyzStatsObject.total_put_as_wt            0                       # Total number of put as write through (Unspecified)
system.caches.controllers6.xyzStatsObject.total_putm            0                       # Total number of PutM (Unspecified)
system.caches.controllers6.xyzStatsObject.total_putm_as_wt            0                       # Total number of PutM as write through (Unspecified)
system.caches.controllers6.xyzStatsObject.total_puts            0                       # Total number of PutS (Unspecified)
system.caches.controllers6.xyzStatsObject.total_puts_as_wt            0                       # Total number of PutS as write through (Unspecified)
system.caches.controllers6.xyzStatsObject.total_repl            0                       # Total Replacement (Unspecified)
system.caches.controllers6.xyzStatsObject.total_repl_llc            0                       # Total Replacement of LLC line (Unspecified)
system.caches.controllers6.xyzStatsObject.total_repl_owned            0                       # Total Replacement of owned line (Unspecified)
system.caches.controllers6.xyzStatsObject.total_repl_shared            0                       # Total Replacement of shared line (Unspecified)
system.caches.controllers6.xyzStatsObject.wt_putRatio          nan                       # WT / Put (Unspecified)
system.caches.controllers6.xyzStatsObject.wt_putmRatio          nan                       # PutM WT / PutM (Unspecified)
system.caches.controllers6.xyzStatsObject.wt_putsRatio          nan                       # PutS WT / PutS (Unspecified)
system.caches.controllers6.xyzStatsObjectlatency::samples       182253                       # Mem access latency (Unspecified)
system.caches.controllers6.xyzStatsObjectlatency::mean   186.674030                       # Mem access latency (Unspecified)
system.caches.controllers6.xyzStatsObjectlatency::stdev   181.422940                       # Mem access latency (Unspecified)
system.caches.controllers6.xyzStatsObjectlatency::underflows            0      0.00%      0.00% # Mem access latency (Unspecified)
system.caches.controllers6.xyzStatsObjectlatency::0-49999       182253    100.00%    100.00% # Mem access latency (Unspecified)
system.caches.controllers6.xyzStatsObjectlatency::50000-99999            0      0.00%    100.00% # Mem access latency (Unspecified)
system.caches.controllers6.xyzStatsObjectlatency::100000            0      0.00%    100.00% # Mem access latency (Unspecified)
system.caches.controllers6.xyzStatsObjectlatency::overflows            0      0.00%    100.00% # Mem access latency (Unspecified)
system.caches.controllers6.xyzStatsObjectlatency::min_value           15                       # Mem access latency (Unspecified)
system.caches.controllers6.xyzStatsObjectlatency::max_value          755                       # Mem access latency (Unspecified)
system.caches.controllers6.xyzStatsObjectlatency::total       182253                       # Mem access latency (Unspecified)
system.caches.controllers7.xyzStatsObject.total_put            0                       # Total number of put (PutM + PutS) (Unspecified)
system.caches.controllers7.xyzStatsObject.total_put_as_wt            0                       # Total number of put as write through (Unspecified)
system.caches.controllers7.xyzStatsObject.total_putm            0                       # Total number of PutM (Unspecified)
system.caches.controllers7.xyzStatsObject.total_putm_as_wt            0                       # Total number of PutM as write through (Unspecified)
system.caches.controllers7.xyzStatsObject.total_puts            0                       # Total number of PutS (Unspecified)
system.caches.controllers7.xyzStatsObject.total_puts_as_wt            0                       # Total number of PutS as write through (Unspecified)
system.caches.controllers7.xyzStatsObject.total_repl            0                       # Total Replacement (Unspecified)
system.caches.controllers7.xyzStatsObject.total_repl_llc            0                       # Total Replacement of LLC line (Unspecified)
system.caches.controllers7.xyzStatsObject.total_repl_owned            0                       # Total Replacement of owned line (Unspecified)
system.caches.controllers7.xyzStatsObject.total_repl_shared            0                       # Total Replacement of shared line (Unspecified)
system.caches.controllers7.xyzStatsObject.wt_putRatio          nan                       # WT / Put (Unspecified)
system.caches.controllers7.xyzStatsObject.wt_putmRatio          nan                       # PutM WT / PutM (Unspecified)
system.caches.controllers7.xyzStatsObject.wt_putsRatio          nan                       # PutS WT / PutS (Unspecified)
system.caches.controllers7.xyzStatsObjectlatency::samples       183918                       # Mem access latency (Unspecified)
system.caches.controllers7.xyzStatsObjectlatency::mean   188.037979                       # Mem access latency (Unspecified)
system.caches.controllers7.xyzStatsObjectlatency::stdev   180.938022                       # Mem access latency (Unspecified)
system.caches.controllers7.xyzStatsObjectlatency::underflows            0      0.00%      0.00% # Mem access latency (Unspecified)
system.caches.controllers7.xyzStatsObjectlatency::0-49999       183918    100.00%    100.00% # Mem access latency (Unspecified)
system.caches.controllers7.xyzStatsObjectlatency::50000-99999            0      0.00%    100.00% # Mem access latency (Unspecified)
system.caches.controllers7.xyzStatsObjectlatency::100000            0      0.00%    100.00% # Mem access latency (Unspecified)
system.caches.controllers7.xyzStatsObjectlatency::overflows            0      0.00%    100.00% # Mem access latency (Unspecified)
system.caches.controllers7.xyzStatsObjectlatency::min_value           15                       # Mem access latency (Unspecified)
system.caches.controllers7.xyzStatsObjectlatency::max_value          732                       # Mem access latency (Unspecified)
system.caches.controllers7.xyzStatsObjectlatency::total       183918                       # Mem access latency (Unspecified)
system.caches.controllers8.xyzStatsObject.total_put      1010044                       # Total number of put (PutM + PutS) (Unspecified)
system.caches.controllers8.xyzStatsObject.total_put_as_wt       641507                       # Total number of put as write through (Unspecified)
system.caches.controllers8.xyzStatsObject.total_putm       325869                       # Total number of PutM (Unspecified)
system.caches.controllers8.xyzStatsObject.total_putm_as_wt       245883                       # Total number of PutM as write through (Unspecified)
system.caches.controllers8.xyzStatsObject.total_puts       684175                       # Total number of PutS (Unspecified)
system.caches.controllers8.xyzStatsObject.total_puts_as_wt       395624                       # Total number of PutS as write through (Unspecified)
system.caches.controllers8.xyzStatsObject.total_repl            0                       # Total Replacement (Unspecified)
system.caches.controllers8.xyzStatsObject.total_repl_llc            0                       # Total Replacement of LLC line (Unspecified)
system.caches.controllers8.xyzStatsObject.total_repl_owned            0                       # Total Replacement of owned line (Unspecified)
system.caches.controllers8.xyzStatsObject.total_repl_shared            0                       # Total Replacement of shared line (Unspecified)
system.caches.controllers8.xyzStatsObject.wt_putRatio     0.635128                       # WT / Put (Unspecified)
system.caches.controllers8.xyzStatsObject.wt_putmRatio     0.754546                       # PutM WT / PutM (Unspecified)
system.caches.controllers8.xyzStatsObject.wt_putsRatio     0.578250                       # PutS WT / PutS (Unspecified)
system.caches.controllers8.xyzStatsObjectlatency::samples            0                       # Mem access latency (Unspecified)
system.caches.controllers8.xyzStatsObjectlatency::mean          nan                       # Mem access latency (Unspecified)
system.caches.controllers8.xyzStatsObjectlatency::stdev          nan                       # Mem access latency (Unspecified)
system.caches.controllers8.xyzStatsObjectlatency::underflows            0                       # Mem access latency (Unspecified)
system.caches.controllers8.xyzStatsObjectlatency::0-49999            0                       # Mem access latency (Unspecified)
system.caches.controllers8.xyzStatsObjectlatency::50000-99999            0                       # Mem access latency (Unspecified)
system.caches.controllers8.xyzStatsObjectlatency::100000            0                       # Mem access latency (Unspecified)
system.caches.controllers8.xyzStatsObjectlatency::overflows            0                       # Mem access latency (Unspecified)
system.caches.controllers8.xyzStatsObjectlatency::min_value            0                       # Mem access latency (Unspecified)
system.caches.controllers8.xyzStatsObjectlatency::max_value            0                       # Mem access latency (Unspecified)
system.caches.controllers8.xyzStatsObjectlatency::total            0                       # Mem access latency (Unspecified)

---------- End Simulation Statistics   ----------
