
---------- Begin Simulation Statistics ----------
simSeconds                                   0.277636                       # Number of seconds simulated (Second)
simTicks                                 277636223000                       # Number of ticks simulated (Tick)
finalTick                                277636223000                       # Number of ticks from beginning of simulation (restored from checkpoints and never reset) (Tick)
simFreq                                  1000000000000                       # The number of ticks per simulated second ((Tick/Second))
hostSeconds                                     72.05                       # Real time elapsed on the host (Second)
hostTickRate                               3853088544                       # The number of ticks simulated per host second (ticks/s) ((Tick/Second))
hostMemory                                    4951572                       # Number of bytes of host memory used (Byte)
simInsts                                     50408413                       # Number of instructions simulated (Count)
simOps                                       83392380                       # Number of ops (including micro ops) simulated (Count)
hostInstRate                                   699570                       # Simulator instruction rate (inst/s) ((Count/Second))
hostOpRate                                    1157321                       # Simulator op (including micro ops) rate (op/s) ((Count/Second))
system.caches.m_outstandReqHistSeqr::bucket_size            1                       (Unspecified)
system.caches.m_outstandReqHistSeqr::max_bucket            9                       (Unspecified)
system.caches.m_outstandReqHistSeqr::samples     86238999                       (Unspecified)
system.caches.m_outstandReqHistSeqr::mean            1                       (Unspecified)
system.caches.m_outstandReqHistSeqr::gmean            1                       (Unspecified)
system.caches.m_outstandReqHistSeqr      |           0      0.00%      0.00% |    86238999    100.00%    100.00% |           0      0.00%    100.00% |           0      0.00%    100.00% |           0      0.00%    100.00% |           0      0.00%    100.00% |           0      0.00%    100.00% |           0      0.00%    100.00% |           0      0.00%    100.00% |           0      0.00%    100.00% (Unspecified)
system.caches.m_outstandReqHistSeqr::total     86238999                       (Unspecified)
system.caches.m_latencyHistSeqr::bucket_size          128                       (Unspecified)
system.caches.m_latencyHistSeqr::max_bucket         1279                       (Unspecified)
system.caches.m_latencyHistSeqr::samples     86238999                       (Unspecified)
system.caches.m_latencyHistSeqr::mean        4.634711                       (Unspecified)
system.caches.m_latencyHistSeqr::gmean       1.104269                       (Unspecified)
system.caches.m_latencyHistSeqr::stdev      38.002777                       (Unspecified)
system.caches.m_latencyHistSeqr          |    85394708     99.02%     99.02% |      306787      0.36%     99.38% |      326185      0.38%     99.75% |       79587      0.09%     99.85% |       62840      0.07%     99.92% |       36355      0.04%     99.96% |       19190      0.02%     99.98% |       13246      0.02%    100.00% |         101      0.00%    100.00% |           0      0.00%    100.00% (Unspecified)
system.caches.m_latencyHistSeqr::total       86238999                       (Unspecified)
system.caches.m_hitLatencyHistSeqr::bucket_size            1                       (Unspecified)
system.caches.m_hitLatencyHistSeqr::max_bucket            9                       (Unspecified)
system.caches.m_hitLatencyHistSeqr::samples     84042825                       (Unspecified)
system.caches.m_hitLatencyHistSeqr::mean            1                       (Unspecified)
system.caches.m_hitLatencyHistSeqr::gmean            1                       (Unspecified)
system.caches.m_hitLatencyHistSeqr       |           0      0.00%      0.00% |    84042825    100.00%    100.00% |           0      0.00%    100.00% |           0      0.00%    100.00% |           0      0.00%    100.00% |           0      0.00%    100.00% |           0      0.00%    100.00% |           0      0.00%    100.00% |           0      0.00%    100.00% |           0      0.00%    100.00% (Unspecified)
system.caches.m_hitLatencyHistSeqr::total     84042825                       (Unspecified)
system.caches.m_missLatencyHistSeqr::bucket_size          128                       (Unspecified)
system.caches.m_missLatencyHistSeqr::max_bucket         1279                       (Unspecified)
system.caches.m_missLatencyHistSeqr::samples      2196174                       (Unspecified)
system.caches.m_missLatencyHistSeqr::mean   143.727243                       (Unspecified)
system.caches.m_missLatencyHistSeqr::gmean    49.142503                       (Unspecified)
system.caches.m_missLatencyHistSeqr::stdev   191.986366                       (Unspecified)
system.caches.m_missLatencyHistSeqr      |     1351883     61.56%     61.56% |      306787     13.97%     75.53% |      326185     14.85%     90.38% |       79587      3.62%     94.00% |       62840      2.86%     96.86% |       36355      1.66%     98.52% |       19190      0.87%     99.39% |       13246      0.60%    100.00% |         101      0.00%    100.00% |           0      0.00%    100.00% (Unspecified)
system.caches.m_missLatencyHistSeqr::total      2196174                       (Unspecified)
system.caches.L0Cache_Controller.Load    |     7346410     60.46%     60.46% |     1457705     12.00%     72.45% |     1620611     13.34%     85.79% |     1727019     14.21%    100.00% (Unspecified)
system.caches.L0Cache_Controller.Load::total     12151745                       (Unspecified)
system.caches.L0Cache_Controller.Ifetch  |    38230836     55.20%     55.20% |     9435117     13.62%     68.83% |    10406658     15.03%     83.85% |    11181905     16.15%    100.00% (Unspecified)
system.caches.L0Cache_Controller.Ifetch::total     69254516                       (Unspecified)
system.caches.L0Cache_Controller.Store   |     3191579     66.04%     66.04% |      505022     10.45%     76.49% |      534317     11.06%     87.55% |      601820     12.45%    100.00% (Unspecified)
system.caches.L0Cache_Controller.Store::total      4832738                       (Unspecified)
system.caches.L0Cache_Controller.Replacement |     1077219     58.92%     58.92% |      223308     12.21%     71.14% |      272731     14.92%     86.05% |      254945     13.95%    100.00% (Unspecified)
system.caches.L0Cache_Controller.Replacement::total      1828203                       (Unspecified)
system.caches.L0Cache_Controller.Inv     |      359221     52.08%     52.08% |       98667     14.30%     66.38% |      116835     16.94%     83.32% |      115066     16.68%    100.00% (Unspecified)
system.caches.L0Cache_Controller.Inv::total       689789                       (Unspecified)
system.caches.L0Cache_Controller.Data    |     1136113     57.80%     57.80% |      250686     12.75%     70.55% |      292131     14.86%     85.41% |      286742     14.59%    100.00% (Unspecified)
system.caches.L0Cache_Controller.Data::total      1965672                       (Unspecified)
system.caches.L0Cache_Controller.ExData  |      114497     49.67%     49.67% |       32506     14.10%     63.78% |       45651     19.81%     83.58% |       37848     16.42%    100.00% (Unspecified)
system.caches.L0Cache_Controller.ExData::total       230502                       (Unspecified)
system.caches.L0Cache_Controller.I.Load  |      825342     54.45%     54.45% |      207323     13.68%     68.13% |      249249     16.44%     84.57% |      233909     15.43%    100.00% (Unspecified)
system.caches.L0Cache_Controller.I.Load::total      1515823                       (Unspecified)
system.caches.L0Cache_Controller.I.Ifetch |      150405     58.84%     58.84% |       30639     11.99%     70.83% |       35912     14.05%     84.88% |       38650     15.12%    100.00% (Unspecified)
system.caches.L0Cache_Controller.I.Ifetch::total       255606                       (Unspecified)
system.caches.L0Cache_Controller.I.Store |      214250     76.99%     76.99% |       17609      6.33%     83.32% |       24611      8.84%     92.16% |       21817      7.84%    100.00% (Unspecified)
system.caches.L0Cache_Controller.I.Store::total       278287                       (Unspecified)
system.caches.L0Cache_Controller.I.Inv   |      246501     52.61%     52.61% |       66462     14.19%     66.80% |       79851     17.04%     83.84% |       75693     16.16%    100.00% (Unspecified)
system.caches.L0Cache_Controller.I.Inv::total       468507                       (Unspecified)
system.caches.L0Cache_Controller.IS_D.Data |      861250     55.89%     55.89% |      205456     13.33%     69.22% |      239510     15.54%     84.77% |      234711     15.23%    100.00% (Unspecified)
system.caches.L0Cache_Controller.IS_D.Data::total      1540927                       (Unspecified)
system.caches.L0Cache_Controller.IS_D.ExData |      114497     49.67%     49.67% |       32506     14.10%     63.78% |       45651     19.81%     83.58% |       37848     16.42%    100.00% (Unspecified)
system.caches.L0Cache_Controller.IS_D.ExData::total       230502                       (Unspecified)
system.caches.L0Cache_Controller.IM_D.Inv |           0      0.00%      0.00% |           0      0.00%      0.00% |           1     50.00%     50.00% |           1     50.00%    100.00% (Unspecified)
system.caches.L0Cache_Controller.IM_D.Inv::total            2                       (Unspecified)
system.caches.L0Cache_Controller.IM_D.Data |      274863     64.71%     64.71% |       45230     10.65%     75.36% |       52621     12.39%     87.75% |       52031     12.25%    100.00% (Unspecified)
system.caches.L0Cache_Controller.IM_D.Data::total       424745                       (Unspecified)
system.caches.L0Cache_Controller.S.Load  |     3649130     66.16%     66.16% |      557909     10.12%     76.28% |      619899     11.24%     87.52% |      688490     12.48%    100.00% (Unspecified)
system.caches.L0Cache_Controller.S.Load::total      5515428                       (Unspecified)
system.caches.L0Cache_Controller.S.Ifetch |    38080431     55.19%     55.19% |     9404478     13.63%     68.82% |    10370746     15.03%     83.85% |    11143255     16.15%    100.00% (Unspecified)
system.caches.L0Cache_Controller.S.Ifetch::total     68998910                       (Unspecified)
system.caches.L0Cache_Controller.S.Store |       60613     41.39%     41.39% |       27621     18.86%     60.25% |       28010     19.12%     79.37% |       30214     20.63%    100.00% (Unspecified)
system.caches.L0Cache_Controller.S.Store::total       146458                       (Unspecified)
system.caches.L0Cache_Controller.S.Replacement |      708938     58.46%     58.46% |      151755     12.51%     70.98% |      180260     14.86%     85.84% |      171696     14.16%    100.00% (Unspecified)
system.caches.L0Cache_Controller.S.Replacement::total      1212649                       (Unspecified)
system.caches.L0Cache_Controller.S.Inv   |       91653     50.46%     50.46% |       26037     14.33%     64.79% |       31197     17.17%     81.97% |       32757     18.03%    100.00% (Unspecified)
system.caches.L0Cache_Controller.S.Inv::total       181644                       (Unspecified)
system.caches.L0Cache_Controller.M.Load  |     2871938     56.09%     56.09% |      692473     13.52%     69.61% |      751463     14.68%     84.29% |      804620     15.71%    100.00% (Unspecified)
system.caches.L0Cache_Controller.M.Load::total      5120494                       (Unspecified)
system.caches.L0Cache_Controller.M.Store |     2916716     66.17%     66.17% |      459792     10.43%     76.60% |      481696     10.93%     87.53% |      549789     12.47%    100.00% (Unspecified)
system.caches.L0Cache_Controller.M.Store::total      4407993                       (Unspecified)
system.caches.L0Cache_Controller.M.Replacement |      368281     59.83%     59.83% |       71553     11.62%     71.45% |       92471     15.02%     86.48% |       83249     13.52%    100.00% (Unspecified)
system.caches.L0Cache_Controller.M.Replacement::total       615554                       (Unspecified)
system.caches.L0Cache_Controller.M.Inv   |       21067     53.15%     53.15% |        6168     15.56%     68.71% |        5786     14.60%     83.31% |        6615     16.69%    100.00% (Unspecified)
system.caches.L0Cache_Controller.M.Inv::total        39636                       (Unspecified)
system.caches.L1Cache_Controller.Load    |      975747     55.08%     55.08% |      237962     13.43%     68.52% |      285161     16.10%     84.61% |      272559     15.39%    100.00% (Unspecified)
system.caches.L1Cache_Controller.Load::total      1771429                       (Unspecified)
system.caches.L1Cache_Controller.Store   |      274863     64.71%     64.71% |       45230     10.65%     75.36% |       52621     12.39%     87.75% |       52031     12.25%    100.00% (Unspecified)
system.caches.L1Cache_Controller.Store::total       424745                       (Unspecified)
system.caches.L1Cache_Controller.PutM    |      368281     59.83%     59.83% |       71553     11.62%     71.45% |       92471     15.02%     86.48% |       83249     13.52%    100.00% (Unspecified)
system.caches.L1Cache_Controller.PutM::total       615554                       (Unspecified)
system.caches.L1Cache_Controller.Replacement |     1119236     55.29%     55.29% |      274684     13.57%     68.85% |      313503     15.49%     84.34% |      317031     15.66%    100.00% (Unspecified)
system.caches.L1Cache_Controller.Replacement::total      2024454                       (Unspecified)
system.caches.L1Cache_Controller.FwdGetM |        2980     35.36%     35.36% |        2685     31.86%     67.22% |        2087     24.77%     91.99% |         675      8.01%    100.00% (Unspecified)
system.caches.L1Cache_Controller.FwdGetM::total         8427                       (Unspecified)
system.caches.L1Cache_Controller.Inv     |          43     36.13%     36.13% |          31     26.05%     62.18% |          33     27.73%     89.92% |          12     10.08%    100.00% (Unspecified)
system.caches.L1Cache_Controller.Inv::total          119                       (Unspecified)
system.caches.L1Cache_Controller.PutAck  |      539902     55.32%     55.32% |      132180     13.54%     68.87% |      151658     15.54%     84.41% |      152143     15.59%    100.00% (Unspecified)
system.caches.L1Cache_Controller.PutAck::total       975883                       (Unspecified)
system.caches.L1Cache_Controller.DataDirNoAcks |      603075     53.44%     53.44% |      160666     14.24%     67.68% |      181155     16.05%     83.74% |      183536     16.26%    100.00% (Unspecified)
system.caches.L1Cache_Controller.DataDirNoAcks::total      1128432                       (Unspecified)
system.caches.L1Cache_Controller.DataOwner |        1542     34.58%     34.58% |        1421     31.87%     66.45% |        1116     25.03%     91.48% |         380      8.52%    100.00% (Unspecified)
system.caches.L1Cache_Controller.DataOwner::total         4459                       (Unspecified)
system.caches.L1Cache_Controller.InvAck  |          33     27.73%     27.73% |          25     21.01%     48.74% |          16     13.45%     62.18% |          45     37.82%    100.00% (Unspecified)
system.caches.L1Cache_Controller.InvAck::total          119                       (Unspecified)
system.caches.L1Cache_Controller.WB_Data |       21067     53.15%     53.15% |        6168     15.56%     68.71% |        5786     14.60%     83.31% |        6615     16.69%    100.00% (Unspecified)
system.caches.L1Cache_Controller.WB_Data::total        39636                       (Unspecified)
system.caches.L1Cache_Controller.I.Load  |      402680     49.92%     49.92% |      122330     15.17%     65.09% |      141523     17.54%     82.63% |      140097     17.37%    100.00% (Unspecified)
system.caches.L1Cache_Controller.I.Load::total       806630                       (Unspecified)
system.caches.L1Cache_Controller.I.Store |      138953     79.71%     79.71% |       11383      6.53%     86.24% |       11399      6.54%     92.78% |       12581      7.22%    100.00% (Unspecified)
system.caches.L1Cache_Controller.I.Store::total       174316                       (Unspecified)
system.caches.L1Cache_Controller.IS_D.FwdGetM |          12     38.71%     38.71% |          14     45.16%     83.87% |           4     12.90%     96.77% |           1      3.23%    100.00% (Unspecified)
system.caches.L1Cache_Controller.IS_D.FwdGetM::total           31                       (Unspecified)
system.caches.L1Cache_Controller.IS_D.DataDirNoAcks |      401245     50.00%     50.00% |      120972     15.07%     65.07% |      140497     17.51%     82.58% |      139788     17.42%    100.00% (Unspecified)
system.caches.L1Cache_Controller.IS_D.DataDirNoAcks::total       802502                       (Unspecified)
system.caches.L1Cache_Controller.IS_D.DataOwner |        1435     34.76%     34.76% |        1358     32.90%     67.66% |        1026     24.85%     92.51% |         309      7.49%    100.00% (Unspecified)
system.caches.L1Cache_Controller.IS_D.DataOwner::total         4128                       (Unspecified)
system.caches.L1Cache_Controller.IM_AD.FwdGetM |           0      0.00%      0.00% |           0      0.00%      0.00% |           1     33.33%     33.33% |           2     66.67%    100.00% (Unspecified)
system.caches.L1Cache_Controller.IM_AD.FwdGetM::total            3                       (Unspecified)
system.caches.L1Cache_Controller.IM_AD.DataDirNoAcks |      138846     79.80%     79.80% |       11321      6.51%     86.31% |       11309      6.50%     92.81% |       12511      7.19%    100.00% (Unspecified)
system.caches.L1Cache_Controller.IM_AD.DataDirNoAcks::total       173987                       (Unspecified)
system.caches.L1Cache_Controller.IM_AD.DataOwner |         107     32.33%     32.33% |          63     19.03%     51.36% |          90     27.19%     78.55% |          71     21.45%    100.00% (Unspecified)
system.caches.L1Cache_Controller.IM_AD.DataOwner::total          331                       (Unspecified)
system.caches.L1Cache_Controller.IM_AD.InvAck |          15     41.67%     41.67% |          15     41.67%     83.33% |           3      8.33%     91.67% |           3      8.33%    100.00% (Unspecified)
system.caches.L1Cache_Controller.IM_AD.InvAck::total           36                       (Unspecified)
system.caches.L1Cache_Controller.S.Load  |      460005     62.30%     62.30% |       84484     11.44%     73.74% |       99013     13.41%     87.15% |       94923     12.85%    100.00% (Unspecified)
system.caches.L1Cache_Controller.S.Load::total       738425                       (Unspecified)
system.caches.L1Cache_Controller.S.Store |       62984     41.45%     41.45% |       28374     18.67%     60.13% |       29349     19.32%     79.44% |       31238     20.56%    100.00% (Unspecified)
system.caches.L1Cache_Controller.S.Store::total       151945                       (Unspecified)
system.caches.L1Cache_Controller.S.Replacement |      338111     52.01%     52.01% |       92469     14.23%     66.24% |      111016     17.08%     83.32% |      108439     16.68%    100.00% (Unspecified)
system.caches.L1Cache_Controller.S.Replacement::total       650035                       (Unspecified)
system.caches.L1Cache_Controller.S.Inv   |          43     36.75%     36.75% |          30     25.64%     62.39% |          33     28.21%     90.60% |          11      9.40%    100.00% (Unspecified)
system.caches.L1Cache_Controller.S.Inv::total          117                       (Unspecified)
system.caches.L1Cache_Controller.SM_AD.Inv |           0      0.00%      0.00% |           1     50.00%     50.00% |           0      0.00%     50.00% |           1     50.00%    100.00% (Unspecified)
system.caches.L1Cache_Controller.SM_AD.Inv::total            2                       (Unspecified)
system.caches.L1Cache_Controller.SM_AD.DataDirNoAcks |       62984     41.45%     41.45% |       28373     18.67%     60.13% |       29349     19.32%     79.44% |       31237     20.56%    100.00% (Unspecified)
system.caches.L1Cache_Controller.SM_AD.DataDirNoAcks::total       151943                       (Unspecified)
system.caches.L1Cache_Controller.SM_AD.InvAck |          18     21.69%     21.69% |          10     12.05%     33.73% |          13     15.66%     49.40% |          42     50.60%    100.00% (Unspecified)
system.caches.L1Cache_Controller.SM_AD.InvAck::total           83                       (Unspecified)
system.caches.L1Cache_Controller.M.Load  |      113062     49.94%     49.94% |       31148     13.76%     63.70% |       44625     19.71%     83.42% |       37539     16.58%    100.00% (Unspecified)
system.caches.L1Cache_Controller.M.Load::total       226374                       (Unspecified)
system.caches.L1Cache_Controller.M.Store |       72926     74.05%     74.05% |        5473      5.56%     79.61% |       11873     12.06%     91.66% |        8212      8.34%    100.00% (Unspecified)
system.caches.L1Cache_Controller.M.Store::total        98484                       (Unspecified)
system.caches.L1Cache_Controller.M.Replacement |      201791     61.93%     61.93% |       39711     12.19%     74.11% |       40642     12.47%     86.59% |       43704     13.41%    100.00% (Unspecified)
system.caches.L1Cache_Controller.M.Replacement::total       325848                       (Unspecified)
system.caches.L1Cache_Controller.M.FwdGetM |        1560     34.99%     34.99% |        1382     31.00%     65.99% |        1112     24.94%     90.94% |         404      9.06%    100.00% (Unspecified)
system.caches.L1Cache_Controller.M.FwdGetM::total         4458                       (Unspecified)
system.caches.L1Cache_Controller.M_P.PutM |      368281     59.83%     59.83% |       71553     11.62%     71.45% |       92471     15.02%     86.48% |       83249     13.52%    100.00% (Unspecified)
system.caches.L1Cache_Controller.M_P.PutM::total       615554                       (Unspecified)
system.caches.L1Cache_Controller.M_P.Replacement |       19661     55.05%     55.05% |        4886     13.68%     68.72% |        4819     13.49%     82.22% |        6352     17.78%    100.00% (Unspecified)
system.caches.L1Cache_Controller.M_P.Replacement::total        35718                       (Unspecified)
system.caches.L1Cache_Controller.M_P.FwdGetM |        1406     35.89%     35.89% |        1282     32.73%     68.62% |         966     24.66%     93.29% |         263      6.71%    100.00% (Unspecified)
system.caches.L1Cache_Controller.M_P.FwdGetM::total         3917                       (Unspecified)
system.caches.L1Cache_Controller.M_P.WB_Data |           0      0.00%      0.00% |           0      0.00%      0.00% |           1    100.00%    100.00% |           0      0.00%    100.00% (Unspecified)
system.caches.L1Cache_Controller.M_P.WB_Data::total            1                       (Unspecified)
system.caches.L1Cache_Controller.MP_D.Replacement |       19661     55.05%     55.05% |        4886     13.68%     68.72% |        4819     13.49%     82.22% |        6352     17.78%    100.00% (Unspecified)
system.caches.L1Cache_Controller.MP_D.Replacement::total        35718                       (Unspecified)
system.caches.L1Cache_Controller.MP_D.FwdGetM |           2     11.76%     11.76% |           6     35.29%     47.06% |           4     23.53%     70.59% |           5     29.41%    100.00% (Unspecified)
system.caches.L1Cache_Controller.MP_D.FwdGetM::total           17                       (Unspecified)
system.caches.L1Cache_Controller.MP_D.WB_Data |       21067     53.15%     53.15% |        6168     15.56%     68.71% |        5785     14.60%     83.31% |        6615     16.69%    100.00% (Unspecified)
system.caches.L1Cache_Controller.MP_D.WB_Data::total        39635                       (Unspecified)
system.caches.L1Cache_Controller.MI_A.Replacement |      201859     61.74%     61.74% |       40214     12.30%     74.04% |       41144     12.58%     86.63% |       43724     13.37%    100.00% (Unspecified)
system.caches.L1Cache_Controller.MI_A.Replacement::total       326941                       (Unspecified)
system.caches.L1Cache_Controller.MI_A.FwdGetM |           0      0.00%      0.00% |           1    100.00%    100.00% |           0      0.00%    100.00% |           0      0.00%    100.00% (Unspecified)
system.caches.L1Cache_Controller.MI_A.FwdGetM::total            1                       (Unspecified)
system.caches.L1Cache_Controller.MI_A.PutAck |      201791     61.93%     61.93% |       39710     12.19%     74.11% |       40642     12.47%     86.59% |       43704     13.41%    100.00% (Unspecified)
system.caches.L1Cache_Controller.MI_A.PutAck::total       325847                       (Unspecified)
system.caches.L1Cache_Controller.SI_A.Replacement |      338153     52.01%     52.01% |       92518     14.23%     66.24% |      111063     17.08%     83.32% |      108460     16.68%    100.00% (Unspecified)
system.caches.L1Cache_Controller.SI_A.Replacement::total       650194                       (Unspecified)
system.caches.L1Cache_Controller.SI_A.PutAck |      338111     52.01%     52.01% |       92469     14.23%     66.24% |      111016     17.08%     83.32% |      108439     16.68%    100.00% (Unspecified)
system.caches.L1Cache_Controller.SI_A.PutAck::total       650035                       (Unspecified)
system.caches.L1Cache_Controller.II_A.PutAck |           0      0.00%      0.00% |           1    100.00%    100.00% |           0      0.00%    100.00% |           0      0.00%    100.00% (Unspecified)
system.caches.L1Cache_Controller.II_A.PutAck::total            1                       (Unspecified)
system.caches.Directory_Controller.GetS        806630      0.00%      0.00% (Unspecified)
system.caches.Directory_Controller.GetM        326261      0.00%      0.00% (Unspecified)
system.caches.Directory_Controller.PutSNotLast        96493      0.00%      0.00% (Unspecified)
system.caches.Directory_Controller.PutSLast       192436      0.00%      0.00% (Unspecified)
system.caches.Directory_Controller.PutSLastWT       361106      0.00%      0.00% (Unspecified)
system.caches.Directory_Controller.PutMOwner        79562      0.00%      0.00% (Unspecified)
system.caches.Directory_Controller.PutMOwnerWT       246285      0.00%      0.00% (Unspecified)
system.caches.Directory_Controller.PutMNonOwner            1      0.00%      0.00% (Unspecified)
system.caches.Directory_Controller.Sync         34157      0.00%      0.00% (Unspecified)
system.caches.Directory_Controller.MemData       486801      0.00%      0.00% (Unspecified)
system.caches.Directory_Controller.LastMemAck       641548      0.00%      0.00% (Unspecified)
system.caches.Directory_Controller.I.GetS       345974      0.00%      0.00% (Unspecified)
system.caches.Directory_Controller.I.GetM       140827      0.00%      0.00% (Unspecified)
system.caches.Directory_Controller.S.GetS        96771      0.00%      0.00% (Unspecified)
system.caches.Directory_Controller.S.GetM       151970      0.00%      0.00% (Unspecified)
system.caches.Directory_Controller.S.PutSNotLast        96493      0.00%      0.00% (Unspecified)
system.caches.Directory_Controller.S.PutSLast       192436      0.00%      0.00% (Unspecified)
system.caches.Directory_Controller.S.PutSLastWT       361106      0.00%      0.00% (Unspecified)
system.caches.Directory_Controller.M.GetS         4128      0.00%      0.00% (Unspecified)
system.caches.Directory_Controller.M.GetM          331      0.00%      0.00% (Unspecified)
system.caches.Directory_Controller.M.PutMOwner        79562      0.00%      0.00% (Unspecified)
system.caches.Directory_Controller.M.PutMOwnerWT       246285      0.00%      0.00% (Unspecified)
system.caches.Directory_Controller.M.PutMNonOwner            1      0.00%      0.00% (Unspecified)
system.caches.Directory_Controller.LLCOnly.GetS       359757      0.00%      0.00% (Unspecified)
system.caches.Directory_Controller.LLCOnly.GetM        33133      0.00%      0.00% (Unspecified)
system.caches.Directory_Controller.LLCOnly.Sync        34157      0.00%      0.00% (Unspecified)
system.caches.Directory_Controller.LLCOnly_m.LastMemAck       395263      0.00%      0.00% (Unspecified)
system.caches.Directory_Controller.S_m.MemData       345974      0.00%      0.00% (Unspecified)
system.caches.Directory_Controller.M_m.MemData       140827      0.00%      0.00% (Unspecified)
system.caches.Directory_Controller.MI_m.LastMemAck       246285      0.00%      0.00% (Unspecified)
system.caches.RequestType.LD.latency_hist_seqr::bucket_size          128                       (Unspecified)
system.caches.RequestType.LD.latency_hist_seqr::max_bucket         1279                       (Unspecified)
system.caches.RequestType.LD.latency_hist_seqr::samples     12151745                       (Unspecified)
system.caches.RequestType.LD.latency_hist_seqr::mean    16.876901                       (Unspecified)
system.caches.RequestType.LD.latency_hist_seqr::gmean     1.589940                       (Unspecified)
system.caches.RequestType.LD.latency_hist_seqr::stdev    76.899777                       (Unspecified)
system.caches.RequestType.LD.latency_hist_seqr |    11628269     95.69%     95.69% |      196662      1.62%     97.31% |      187035      1.54%     98.85% |       57844      0.48%     99.33% |       45997      0.38%     99.70% |       24355      0.20%     99.90% |        8668      0.07%     99.98% |        2841      0.02%    100.00% |          74      0.00%    100.00% |           0      0.00%    100.00% (Unspecified)
system.caches.RequestType.LD.latency_hist_seqr::total     12151745                       (Unspecified)
system.caches.RequestType.LD.hit_latency_hist_seqr::bucket_size            1                       (Unspecified)
system.caches.RequestType.LD.hit_latency_hist_seqr::max_bucket            9                       (Unspecified)
system.caches.RequestType.LD.hit_latency_hist_seqr::samples     10635922                       (Unspecified)
system.caches.RequestType.LD.hit_latency_hist_seqr::mean            1                       (Unspecified)
system.caches.RequestType.LD.hit_latency_hist_seqr::gmean            1                       (Unspecified)
system.caches.RequestType.LD.hit_latency_hist_seqr |           0      0.00%      0.00% |    10635922    100.00%    100.00% |           0      0.00%    100.00% |           0      0.00%    100.00% |           0      0.00%    100.00% |           0      0.00%    100.00% |           0      0.00%    100.00% |           0      0.00%    100.00% |           0      0.00%    100.00% |           0      0.00%    100.00% (Unspecified)
system.caches.RequestType.LD.hit_latency_hist_seqr::total     10635922                       (Unspecified)
system.caches.RequestType.LD.miss_latency_hist_seqr::bucket_size          128                       (Unspecified)
system.caches.RequestType.LD.miss_latency_hist_seqr::max_bucket         1279                       (Unspecified)
system.caches.RequestType.LD.miss_latency_hist_seqr::samples      1515823                       (Unspecified)
system.caches.RequestType.LD.miss_latency_hist_seqr::mean   128.278750                       (Unspecified)
system.caches.RequestType.LD.miss_latency_hist_seqr::gmean    41.151724                       (Unspecified)
system.caches.RequestType.LD.miss_latency_hist_seqr::stdev   182.284651                       (Unspecified)
system.caches.RequestType.LD.miss_latency_hist_seqr |      992347     65.47%     65.47% |      196662     12.97%     78.44% |      187035     12.34%     90.78% |       57844      3.82%     94.59% |       45997      3.03%     97.63% |       24355      1.61%     99.24% |        8668      0.57%     99.81% |        2841      0.19%    100.00% |          74      0.00%    100.00% |           0      0.00%    100.00% (Unspecified)
system.caches.RequestType.LD.miss_latency_hist_seqr::total      1515823                       (Unspecified)
system.caches.RequestType.ST.latency_hist_seqr::bucket_size          128                       (Unspecified)
system.caches.RequestType.ST.latency_hist_seqr::max_bucket         1279                       (Unspecified)
system.caches.RequestType.ST.latency_hist_seqr::samples      4682723                       (Unspecified)
system.caches.RequestType.ST.latency_hist_seqr::mean    16.865221                       (Unspecified)
system.caches.RequestType.ST.latency_hist_seqr::gmean     1.452302                       (Unspecified)
system.caches.RequestType.ST.latency_hist_seqr::stdev    81.300573                       (Unspecified)
system.caches.RequestType.ST.latency_hist_seqr |     4485536     95.79%     95.79% |       58572      1.25%     97.04% |      103314      2.21%     99.25% |        6426      0.14%     99.38% |        5059      0.11%     99.49% |        6125      0.13%     99.62% |        8546      0.18%     99.80% |        9130      0.19%    100.00% |          15      0.00%    100.00% |           0      0.00%    100.00% (Unspecified)
system.caches.RequestType.ST.latency_hist_seqr::total      4682723                       (Unspecified)
system.caches.RequestType.ST.hit_latency_hist_seqr::bucket_size            1                       (Unspecified)
system.caches.RequestType.ST.hit_latency_hist_seqr::max_bucket            9                       (Unspecified)
system.caches.RequestType.ST.hit_latency_hist_seqr::samples      4288275                       (Unspecified)
system.caches.RequestType.ST.hit_latency_hist_seqr::mean            1                       (Unspecified)
system.caches.RequestType.ST.hit_latency_hist_seqr::gmean            1                       (Unspecified)
system.caches.RequestType.ST.hit_latency_hist_seqr |           0      0.00%      0.00% |     4288275    100.00%    100.00% |           0      0.00%    100.00% |           0      0.00%    100.00% |           0      0.00%    100.00% |           0      0.00%    100.00% |           0      0.00%    100.00% |           0      0.00%    100.00% |           0      0.00%    100.00% |           0      0.00%    100.00% (Unspecified)
system.caches.RequestType.ST.hit_latency_hist_seqr::total      4288275                       (Unspecified)
system.caches.RequestType.ST.miss_latency_hist_seqr::bucket_size          128                       (Unspecified)
system.caches.RequestType.ST.miss_latency_hist_seqr::max_bucket         1279                       (Unspecified)
system.caches.RequestType.ST.miss_latency_hist_seqr::samples       394448                       (Unspecified)
system.caches.RequestType.ST.miss_latency_hist_seqr::mean   189.345326                       (Unspecified)
system.caches.RequestType.ST.miss_latency_hist_seqr::gmean    83.921415                       (Unspecified)
system.caches.RequestType.ST.miss_latency_hist_seqr::stdev   214.436194                       (Unspecified)
system.caches.RequestType.ST.miss_latency_hist_seqr |      197261     50.01%     50.01% |       58572     14.85%     64.86% |      103314     26.19%     91.05% |        6426      1.63%     92.68% |        5059      1.28%     93.96% |        6125      1.55%     95.51% |        8546      2.17%     97.68% |        9130      2.31%    100.00% |          15      0.00%    100.00% |           0      0.00%    100.00% (Unspecified)
system.caches.RequestType.ST.miss_latency_hist_seqr::total       394448                       (Unspecified)
system.caches.RequestType.IFETCH.latency_hist_seqr::bucket_size          128                       (Unspecified)
system.caches.RequestType.IFETCH.latency_hist_seqr::max_bucket         1279                       (Unspecified)
system.caches.RequestType.IFETCH.latency_hist_seqr::samples     69254516                       (Unspecified)
system.caches.RequestType.IFETCH.latency_hist_seqr::mean     1.619910                       (Unspecified)
system.caches.RequestType.IFETCH.latency_hist_seqr::gmean     1.015392                       (Unspecified)
system.caches.RequestType.IFETCH.latency_hist_seqr::stdev    15.994860                       (Unspecified)
system.caches.RequestType.IFETCH.latency_hist_seqr |    69141894     99.84%     99.84% |       46149      0.07%     99.90% |       30538      0.04%     99.95% |       15146      0.02%     99.97% |       11701      0.02%     99.99% |        5840      0.01%    100.00% |        1962      0.00%    100.00% |        1274      0.00%    100.00% |          12      0.00%    100.00% |           0      0.00%    100.00% (Unspecified)
system.caches.RequestType.IFETCH.latency_hist_seqr::total     69254516                       (Unspecified)
system.caches.RequestType.IFETCH.hit_latency_hist_seqr::bucket_size            1                       (Unspecified)
system.caches.RequestType.IFETCH.hit_latency_hist_seqr::max_bucket            9                       (Unspecified)
system.caches.RequestType.IFETCH.hit_latency_hist_seqr::samples     68998910                       (Unspecified)
system.caches.RequestType.IFETCH.hit_latency_hist_seqr::mean            1                       (Unspecified)
system.caches.RequestType.IFETCH.hit_latency_hist_seqr::gmean            1                       (Unspecified)
system.caches.RequestType.IFETCH.hit_latency_hist_seqr |           0      0.00%      0.00% |    68998910    100.00%    100.00% |           0      0.00%    100.00% |           0      0.00%    100.00% |           0      0.00%    100.00% |           0      0.00%    100.00% |           0      0.00%    100.00% |           0      0.00%    100.00% |           0      0.00%    100.00% |           0      0.00%    100.00% (Unspecified)
system.caches.RequestType.IFETCH.hit_latency_hist_seqr::total     68998910                       (Unspecified)
system.caches.RequestType.IFETCH.miss_latency_hist_seqr::bucket_size          128                       (Unspecified)
system.caches.RequestType.IFETCH.miss_latency_hist_seqr::max_bucket         1279                       (Unspecified)
system.caches.RequestType.IFETCH.miss_latency_hist_seqr::samples       255606                       (Unspecified)
system.caches.RequestType.IFETCH.miss_latency_hist_seqr::mean   168.959864                       (Unspecified)
system.caches.RequestType.IFETCH.miss_latency_hist_seqr::gmean    62.707528                       (Unspecified)
system.caches.RequestType.IFETCH.miss_latency_hist_seqr::stdev   203.003626                       (Unspecified)
system.caches.RequestType.IFETCH.miss_latency_hist_seqr |      142984     55.94%     55.94% |       46149     18.05%     73.99% |       30538     11.95%     85.94% |       15146      5.93%     91.87% |       11701      4.58%     96.44% |        5840      2.28%     98.73% |        1962      0.77%     99.50% |        1274      0.50%    100.00% |          12      0.00%    100.00% |           0      0.00%    100.00% (Unspecified)
system.caches.RequestType.IFETCH.miss_latency_hist_seqr::total       255606                       (Unspecified)
system.caches.RequestType.RMW_Read.latency_hist_seqr::bucket_size          128                       (Unspecified)
system.caches.RequestType.RMW_Read.latency_hist_seqr::max_bucket         1279                       (Unspecified)
system.caches.RequestType.RMW_Read.latency_hist_seqr::samples       140245                       (Unspecified)
system.caches.RequestType.RMW_Read.latency_hist_seqr::mean    23.389219                       (Unspecified)
system.caches.RequestType.RMW_Read.latency_hist_seqr::gmean     2.164711                       (Unspecified)
system.caches.RequestType.RMW_Read.latency_hist_seqr::stdev    73.978126                       (Unspecified)
system.caches.RequestType.RMW_Read.latency_hist_seqr |      129673     92.46%     92.46% |        5170      3.69%     96.15% |        5200      3.71%     99.86% |         114      0.08%     99.94% |          55      0.04%     99.98% |          24      0.02%     99.99% |           8      0.01%    100.00% |           1      0.00%    100.00% |           0      0.00%    100.00% |           0      0.00%    100.00% (Unspecified)
system.caches.RequestType.RMW_Read.latency_hist_seqr::total       140245                       (Unspecified)
system.caches.RequestType.RMW_Read.hit_latency_hist_seqr::bucket_size            1                       (Unspecified)
system.caches.RequestType.RMW_Read.hit_latency_hist_seqr::max_bucket            9                       (Unspecified)
system.caches.RequestType.RMW_Read.hit_latency_hist_seqr::samples       111251                       (Unspecified)
system.caches.RequestType.RMW_Read.hit_latency_hist_seqr::mean            1                       (Unspecified)
system.caches.RequestType.RMW_Read.hit_latency_hist_seqr::gmean            1                       (Unspecified)
system.caches.RequestType.RMW_Read.hit_latency_hist_seqr |           0      0.00%      0.00% |      111251    100.00%    100.00% |           0      0.00%    100.00% |           0      0.00%    100.00% |           0      0.00%    100.00% |           0      0.00%    100.00% |           0      0.00%    100.00% |           0      0.00%    100.00% |           0      0.00%    100.00% |           0      0.00%    100.00% (Unspecified)
system.caches.RequestType.RMW_Read.hit_latency_hist_seqr::total       111251                       (Unspecified)
system.caches.RequestType.RMW_Read.miss_latency_hist_seqr::bucket_size          128                       (Unspecified)
system.caches.RequestType.RMW_Read.miss_latency_hist_seqr::max_bucket         1279                       (Unspecified)
system.caches.RequestType.RMW_Read.miss_latency_hist_seqr::samples        28994                       (Unspecified)
system.caches.RequestType.RMW_Read.miss_latency_hist_seqr::mean   109.297441                       (Unspecified)
system.caches.RequestType.RMW_Read.miss_latency_hist_seqr::gmean    41.912289                       (Unspecified)
system.caches.RequestType.RMW_Read.miss_latency_hist_seqr::stdev   131.029427                       (Unspecified)
system.caches.RequestType.RMW_Read.miss_latency_hist_seqr |       18422     63.54%     63.54% |        5170     17.83%     81.37% |        5200     17.93%     99.30% |         114      0.39%     99.70% |          55      0.19%     99.89% |          24      0.08%     99.97% |           8      0.03%    100.00% |           1      0.00%    100.00% |           0      0.00%    100.00% |           0      0.00%    100.00% (Unspecified)
system.caches.RequestType.RMW_Read.miss_latency_hist_seqr::total        28994                       (Unspecified)
system.caches.RequestType.Locked_RMW_Read.latency_hist_seqr::bucket_size          128                       (Unspecified)
system.caches.RequestType.Locked_RMW_Read.latency_hist_seqr::max_bucket         1279                       (Unspecified)
system.caches.RequestType.Locked_RMW_Read.latency_hist_seqr::samples         4885                       (Unspecified)
system.caches.RequestType.Locked_RMW_Read.latency_hist_seqr::mean    33.311361                       (Unspecified)
system.caches.RequestType.Locked_RMW_Read.latency_hist_seqr::gmean     2.951735                       (Unspecified)
system.caches.RequestType.Locked_RMW_Read.latency_hist_seqr::stdev    96.480039                       (Unspecified)
system.caches.RequestType.Locked_RMW_Read.latency_hist_seqr |        4451     91.12%     91.12% |         234      4.79%     95.91% |          98      2.01%     97.91% |          57      1.17%     99.08% |          28      0.57%     99.65% |          11      0.23%     99.88% |           6      0.12%    100.00% |           0      0.00%    100.00% |           0      0.00%    100.00% |           0      0.00%    100.00% (Unspecified)
system.caches.RequestType.Locked_RMW_Read.latency_hist_seqr::total         4885                       (Unspecified)
system.caches.RequestType.Locked_RMW_Read.hit_latency_hist_seqr::bucket_size            1                       (Unspecified)
system.caches.RequestType.Locked_RMW_Read.hit_latency_hist_seqr::max_bucket            9                       (Unspecified)
system.caches.RequestType.Locked_RMW_Read.hit_latency_hist_seqr::samples         3582                       (Unspecified)
system.caches.RequestType.Locked_RMW_Read.hit_latency_hist_seqr::mean            1                       (Unspecified)
system.caches.RequestType.Locked_RMW_Read.hit_latency_hist_seqr::gmean            1                       (Unspecified)
system.caches.RequestType.Locked_RMW_Read.hit_latency_hist_seqr |           0      0.00%      0.00% |        3582    100.00%    100.00% |           0      0.00%    100.00% |           0      0.00%    100.00% |           0      0.00%    100.00% |           0      0.00%    100.00% |           0      0.00%    100.00% |           0      0.00%    100.00% |           0      0.00%    100.00% |           0      0.00%    100.00% (Unspecified)
system.caches.RequestType.Locked_RMW_Read.hit_latency_hist_seqr::total         3582                       (Unspecified)
system.caches.RequestType.Locked_RMW_Read.miss_latency_hist_seqr::bucket_size          128                       (Unspecified)
system.caches.RequestType.Locked_RMW_Read.miss_latency_hist_seqr::max_bucket         1279                       (Unspecified)
system.caches.RequestType.Locked_RMW_Read.miss_latency_hist_seqr::samples         1303                       (Unspecified)
system.caches.RequestType.Locked_RMW_Read.miss_latency_hist_seqr::mean   122.136608                       (Unspecified)
system.caches.RequestType.Locked_RMW_Read.miss_latency_hist_seqr::gmean    57.854768                       (Unspecified)
system.caches.RequestType.Locked_RMW_Read.miss_latency_hist_seqr::stdev   155.399366                       (Unspecified)
system.caches.RequestType.Locked_RMW_Read.miss_latency_hist_seqr |         869     66.69%     66.69% |         234     17.96%     84.65% |          98      7.52%     92.17% |          57      4.37%     96.55% |          28      2.15%     98.70% |          11      0.84%     99.54% |           6      0.46%    100.00% |           0      0.00%    100.00% |           0      0.00%    100.00% |           0      0.00%    100.00% (Unspecified)
system.caches.RequestType.Locked_RMW_Read.miss_latency_hist_seqr::total         1303                       (Unspecified)
system.caches.RequestType.Locked_RMW_Write.latency_hist_seqr::bucket_size            1                       (Unspecified)
system.caches.RequestType.Locked_RMW_Write.latency_hist_seqr::max_bucket            9                       (Unspecified)
system.caches.RequestType.Locked_RMW_Write.latency_hist_seqr::samples         4885                       (Unspecified)
system.caches.RequestType.Locked_RMW_Write.latency_hist_seqr::mean            1                       (Unspecified)
system.caches.RequestType.Locked_RMW_Write.latency_hist_seqr::gmean            1                       (Unspecified)
system.caches.RequestType.Locked_RMW_Write.latency_hist_seqr |           0      0.00%      0.00% |        4885    100.00%    100.00% |           0      0.00%    100.00% |           0      0.00%    100.00% |           0      0.00%    100.00% |           0      0.00%    100.00% |           0      0.00%    100.00% |           0      0.00%    100.00% |           0      0.00%    100.00% |           0      0.00%    100.00% (Unspecified)
system.caches.RequestType.Locked_RMW_Write.latency_hist_seqr::total         4885                       (Unspecified)
system.caches.RequestType.Locked_RMW_Write.hit_latency_hist_seqr::bucket_size            1                       (Unspecified)
system.caches.RequestType.Locked_RMW_Write.hit_latency_hist_seqr::max_bucket            9                       (Unspecified)
system.caches.RequestType.Locked_RMW_Write.hit_latency_hist_seqr::samples         4885                       (Unspecified)
system.caches.RequestType.Locked_RMW_Write.hit_latency_hist_seqr::mean            1                       (Unspecified)
system.caches.RequestType.Locked_RMW_Write.hit_latency_hist_seqr::gmean            1                       (Unspecified)
system.caches.RequestType.Locked_RMW_Write.hit_latency_hist_seqr |           0      0.00%      0.00% |        4885    100.00%    100.00% |           0      0.00%    100.00% |           0      0.00%    100.00% |           0      0.00%    100.00% |           0      0.00%    100.00% |           0      0.00%    100.00% |           0      0.00%    100.00% |           0      0.00%    100.00% |           0      0.00%    100.00% (Unspecified)
system.caches.RequestType.Locked_RMW_Write.hit_latency_hist_seqr::total         4885                       (Unspecified)
system.caches.controllers0.DCache.m_demand_hits            0                       # Number of cache demand hits (Unspecified)
system.caches.controllers0.DCache.m_demand_misses            0                       # Number of cache demand misses (Unspecified)
system.caches.controllers0.DCache.m_demand_accesses            0                       # Number of cache demand accesses (Unspecified)
system.caches.controllers0.ICache.m_demand_hits            0                       # Number of cache demand hits (Unspecified)
system.caches.controllers0.ICache.m_demand_misses            0                       # Number of cache demand misses (Unspecified)
system.caches.controllers0.ICache.m_demand_accesses            0                       # Number of cache demand accesses (Unspecified)
system.caches.controllers0.forwardFromL1.m_buf_msgs     0.233539                       # Average number of messages in buffer (Unspecified)
system.caches.controllers0.forwardFromL1.m_stall_time  4999.943520                       # Average number of cycles messages are stalled in this MB (Unspecified)
system.caches.controllers0.mandatoryQueue.m_buf_msgs     0.175657                       # Average number of messages in buffer (Unspecified)
system.caches.controllers0.mandatoryQueue.m_stall_time   999.999996                       # Average number of cycles messages are stalled in this MB (Unspecified)
system.caches.controllers0.power_state.pwrStateResidencyTicks::UNDEFINED 277636223000                       # Cumulative time (in ticks) in various power states (Tick)
system.caches.controllers0.requestToL1.m_buf_msgs     0.005831                       # Average number of messages in buffer (Unspecified)
system.caches.controllers0.requestToL1.m_stall_time   999.999993                       # Average number of cycles messages are stalled in this MB (Unspecified)
system.caches.controllers0.responseFromL1.m_buf_msgs     0.004504                       # Average number of messages in buffer (Unspecified)
system.caches.controllers0.responseFromL1.m_stall_time  4999.997641                       # Average number of cycles messages are stalled in this MB (Unspecified)
system.caches.controllers0.responseToL1.m_buf_msgs     0.000076                       # Average number of messages in buffer (Unspecified)
system.caches.controllers0.responseToL1.m_stall_time   999.942990                       # Average number of cycles messages are stalled in this MB (Unspecified)
system.caches.controllers0.xyzStatsObject.power_state.pwrStateResidencyTicks::UNDEFINED 277636223000                       # Cumulative time (in ticks) in various power states (Tick)
system.caches.controllers1.DCache.m_demand_hits            0                       # Number of cache demand hits (Unspecified)
system.caches.controllers1.DCache.m_demand_misses            0                       # Number of cache demand misses (Unspecified)
system.caches.controllers1.DCache.m_demand_accesses            0                       # Number of cache demand accesses (Unspecified)
system.caches.controllers1.ICache.m_demand_hits            0                       # Number of cache demand hits (Unspecified)
system.caches.controllers1.ICache.m_demand_misses            0                       # Number of cache demand misses (Unspecified)
system.caches.controllers1.ICache.m_demand_accesses            0                       # Number of cache demand accesses (Unspecified)
system.caches.controllers1.forwardFromL1.m_buf_msgs     0.000355                       # Average number of messages in buffer (Unspecified)
system.caches.controllers1.forwardFromL1.m_stall_time  1509.088812                       # Average number of cycles messages are stalled in this MB (Unspecified)
system.caches.controllers1.mandatoryQueue.m_buf_msgs     0.041053                       # Average number of messages in buffer (Unspecified)
system.caches.controllers1.mandatoryQueue.m_stall_time   301.850645                       # Average number of cycles messages are stalled in this MB (Unspecified)
system.caches.controllers1.power_state.pwrStateResidencyTicks::UNDEFINED 277636223000                       # Cumulative time (in ticks) in various power states (Tick)
system.caches.controllers1.requestToL1.m_buf_msgs     0.001278                       # Average number of messages in buffer (Unspecified)
system.caches.controllers1.requestToL1.m_stall_time   301.850641                       # Average number of cycles messages are stalled in this MB (Unspecified)
system.caches.controllers1.responseFromL1.m_buf_msgs     0.001020                       # Average number of messages in buffer (Unspecified)
system.caches.controllers1.responseFromL1.m_stall_time  1509.252721                       # Average number of cycles messages are stalled in this MB (Unspecified)
system.caches.controllers1.responseToL1.m_buf_msgs     0.000022                       # Average number of messages in buffer (Unspecified)
system.caches.controllers1.responseToL1.m_stall_time   301.710865                       # Average number of cycles messages are stalled in this MB (Unspecified)
system.caches.controllers1.xyzStatsObject.power_state.pwrStateResidencyTicks::UNDEFINED 277636223000                       # Cumulative time (in ticks) in various power states (Tick)
system.caches.controllers2.DCache.m_demand_hits            0                       # Number of cache demand hits (Unspecified)
system.caches.controllers2.DCache.m_demand_misses            0                       # Number of cache demand misses (Unspecified)
system.caches.controllers2.DCache.m_demand_accesses            0                       # Number of cache demand accesses (Unspecified)
system.caches.controllers2.ICache.m_demand_hits            0                       # Number of cache demand hits (Unspecified)
system.caches.controllers2.ICache.m_demand_misses            0                       # Number of cache demand misses (Unspecified)
system.caches.controllers2.ICache.m_demand_accesses            0                       # Number of cache demand accesses (Unspecified)
system.caches.controllers2.forwardFromL1.m_buf_msgs     0.009601                       # Average number of messages in buffer (Unspecified)
system.caches.controllers2.forwardFromL1.m_stall_time  1508.054736                       # Average number of cycles messages are stalled in this MB (Unspecified)
system.caches.controllers2.forwardFromL1.m_stall_count            1                       # Number of times messages were stalled (Unspecified)
system.caches.controllers2.mandatoryQueue.m_buf_msgs     0.045245                       # Average number of messages in buffer (Unspecified)
system.caches.controllers2.mandatoryQueue.m_stall_time   301.633750                       # Average number of cycles messages are stalled in this MB (Unspecified)
system.caches.controllers2.power_state.pwrStateResidencyTicks::UNDEFINED 277636223000                       # Cumulative time (in ticks) in various power states (Tick)
system.caches.controllers2.requestToL1.m_buf_msgs     0.001550                       # Average number of messages in buffer (Unspecified)
system.caches.controllers2.requestToL1.m_stall_time   301.633746                       # Average number of cycles messages are stalled in this MB (Unspecified)
system.caches.controllers2.responseFromL1.m_buf_msgs     0.001217                       # Average number of messages in buffer (Unspecified)
system.caches.controllers2.responseFromL1.m_stall_time  1508.168244                       # Average number of cycles messages are stalled in this MB (Unspecified)
system.caches.controllers2.responseToL1.m_buf_msgs     0.000021                       # Average number of messages in buffer (Unspecified)
system.caches.controllers2.responseToL1.m_stall_time   301.602896                       # Average number of cycles messages are stalled in this MB (Unspecified)
system.caches.controllers2.xyzStatsObject.power_state.pwrStateResidencyTicks::UNDEFINED 277636223000                       # Cumulative time (in ticks) in various power states (Tick)
system.caches.controllers3.DCache.m_demand_hits            0                       # Number of cache demand hits (Unspecified)
system.caches.controllers3.DCache.m_demand_misses            0                       # Number of cache demand misses (Unspecified)
system.caches.controllers3.DCache.m_demand_accesses            0                       # Number of cache demand accesses (Unspecified)
system.caches.controllers3.ICache.m_demand_hits            0                       # Number of cache demand hits (Unspecified)
system.caches.controllers3.ICache.m_demand_misses            0                       # Number of cache demand misses (Unspecified)
system.caches.controllers3.ICache.m_demand_accesses            0                       # Number of cache demand accesses (Unspecified)
system.caches.controllers3.forwardFromL1.m_buf_msgs     0.006603                       # Average number of messages in buffer (Unspecified)
system.caches.controllers3.forwardFromL1.m_stall_time  1506.909406                       # Average number of cycles messages are stalled in this MB (Unspecified)
system.caches.controllers3.forwardFromL1.m_stall_count            1                       # Number of times messages were stalled (Unspecified)
system.caches.controllers3.mandatoryQueue.m_buf_msgs     0.048663                       # Average number of messages in buffer (Unspecified)
system.caches.controllers3.mandatoryQueue.m_stall_time   301.422711                       # Average number of cycles messages are stalled in this MB (Unspecified)
system.caches.controllers3.power_state.pwrStateResidencyTicks::UNDEFINED 277636223000                       # Cumulative time (in ticks) in various power states (Tick)
system.caches.controllers3.requestToL1.m_buf_msgs     0.001469                       # Average number of messages in buffer (Unspecified)
system.caches.controllers3.requestToL1.m_stall_time   301.422707                       # Average number of cycles messages are stalled in this MB (Unspecified)
system.caches.controllers3.responseFromL1.m_buf_msgs     0.001169                       # Average number of messages in buffer (Unspecified)
system.caches.controllers3.responseFromL1.m_stall_time  1507.111214                       # Average number of cycles messages are stalled in this MB (Unspecified)
system.caches.controllers3.responseToL1.m_buf_msgs     0.000024                       # Average number of messages in buffer (Unspecified)
system.caches.controllers3.responseToL1.m_stall_time   301.379395                       # Average number of cycles messages are stalled in this MB (Unspecified)
system.caches.controllers3.xyzStatsObject.power_state.pwrStateResidencyTicks::UNDEFINED 277636223000                       # Cumulative time (in ticks) in various power states (Tick)
system.caches.controllers4.cacheMemory.m_demand_hits            0                       # Number of cache demand hits (Unspecified)
system.caches.controllers4.cacheMemory.m_demand_misses            0                       # Number of cache demand misses (Unspecified)
system.caches.controllers4.cacheMemory.m_demand_accesses            0                       # Number of cache demand accesses (Unspecified)
system.caches.controllers4.forwardFromDir.m_buf_msgs     0.002001                       # Average number of messages in buffer (Unspecified)
system.caches.controllers4.forwardFromDir.m_stall_time  5140.276213                       # Average number of cycles messages are stalled in this MB (Unspecified)
system.caches.controllers4.forwardFromDir.m_stall_count         1420                       # Number of times messages were stalled (Unspecified)
system.caches.controllers4.forwardToL0.m_buf_msgs     0.001294                       # Average number of messages in buffer (Unspecified)
system.caches.controllers4.forwardToL0.m_stall_time   999.967638                       # Average number of cycles messages are stalled in this MB (Unspecified)
system.caches.controllers4.power_state.pwrStateResidencyTicks::UNDEFINED 277636223000                       # Cumulative time (in ticks) in various power states (Tick)
system.caches.controllers4.requestFromL0.m_buf_msgs     0.063385                       # Average number of messages in buffer (Unspecified)
system.caches.controllers4.requestFromL0.m_stall_time 28443.395626                       # Average number of cycles messages are stalled in this MB (Unspecified)
system.caches.controllers4.requestFromL0.m_stall_count       559673                       # Number of times messages were stalled (Unspecified)
system.caches.controllers4.requestToDir.m_buf_msgs     0.004122                       # Average number of messages in buffer (Unspecified)
system.caches.controllers4.requestToDir.m_stall_time   999.999975                       # Average number of cycles messages are stalled in this MB (Unspecified)
system.caches.controllers4.responseFromDirOrSibling.m_buf_msgs     0.002178                       # Average number of messages in buffer (Unspecified)
system.caches.controllers4.responseFromDirOrSibling.m_stall_time 12964.800335                       # Average number of cycles messages are stalled in this MB (Unspecified)
system.caches.controllers4.responseFromL0.m_buf_msgs     0.000076                       # Average number of messages in buffer (Unspecified)
system.caches.controllers4.responseFromL0.m_stall_time  4999.714879                       # Average number of cycles messages are stalled in this MB (Unspecified)
system.caches.controllers4.responseToDirOrSibling.m_buf_msgs     0.000006                       # Average number of messages in buffer (Unspecified)
system.caches.controllers4.responseToDirOrSibling.m_stall_time   301.850112                       # Average number of cycles messages are stalled in this MB (Unspecified)
system.caches.controllers4.responseToL0.m_buf_msgs     0.004504                       # Average number of messages in buffer (Unspecified)
system.caches.controllers4.responseToL0.m_stall_time   999.999543                       # Average number of cycles messages are stalled in this MB (Unspecified)
system.caches.controllers4.xyzStatsObject.power_state.pwrStateResidencyTicks::UNDEFINED 277636223000                       # Cumulative time (in ticks) in various power states (Tick)
system.caches.controllers5.cacheMemory.m_demand_hits            0                       # Number of cache demand hits (Unspecified)
system.caches.controllers5.cacheMemory.m_demand_misses            0                       # Number of cache demand misses (Unspecified)
system.caches.controllers5.cacheMemory.m_demand_accesses            0                       # Number of cache demand accesses (Unspecified)
system.caches.controllers5.forwardFromDir.m_buf_msgs     0.000528                       # Average number of messages in buffer (Unspecified)
system.caches.controllers5.forwardFromDir.m_stall_time  1673.033969                       # Average number of cycles messages are stalled in this MB (Unspecified)
system.caches.controllers5.forwardFromDir.m_stall_count         1302                       # Number of times messages were stalled (Unspecified)
system.caches.controllers5.forwardToL0.m_buf_msgs     0.000355                       # Average number of messages in buffer (Unspecified)
system.caches.controllers5.forwardToL0.m_stall_time   301.807754                       # Average number of cycles messages are stalled in this MB (Unspecified)
system.caches.controllers5.power_state.pwrStateResidencyTicks::UNDEFINED 277636223000                       # Cumulative time (in ticks) in various power states (Tick)
system.caches.controllers5.requestFromL0.m_buf_msgs     0.043173                       # Average number of messages in buffer (Unspecified)
system.caches.controllers5.requestFromL0.m_stall_time 18889.272129                       # Average number of cycles messages are stalled in this MB (Unspecified)
system.caches.controllers5.requestFromL0.m_stall_count       137618                       # Number of times messages were stalled (Unspecified)
system.caches.controllers5.requestToDir.m_buf_msgs     0.001060                       # Average number of messages in buffer (Unspecified)
system.caches.controllers5.requestToDir.m_stall_time   301.850623                       # Average number of cycles messages are stalled in this MB (Unspecified)
system.caches.controllers5.responseFromDirOrSibling.m_buf_msgs     0.000584                       # Average number of messages in buffer (Unspecified)
system.caches.controllers5.responseFromDirOrSibling.m_stall_time  3894.969490                       # Average number of cycles messages are stalled in this MB (Unspecified)
system.caches.controllers5.responseFromL0.m_buf_msgs     0.000022                       # Average number of messages in buffer (Unspecified)
system.caches.controllers5.responseFromL0.m_stall_time  1508.554253                       # Average number of cycles messages are stalled in this MB (Unspecified)
system.caches.controllers5.responseToDirOrSibling.m_buf_msgs     0.000005                       # Average number of messages in buffer (Unspecified)
system.caches.controllers5.responseToDirOrSibling.m_stall_time   301.616256                       # Average number of cycles messages are stalled in this MB (Unspecified)
system.caches.controllers5.responseToL0.m_buf_msgs     0.001020                       # Average number of messages in buffer (Unspecified)
system.caches.controllers5.responseToL0.m_stall_time   301.850559                       # Average number of cycles messages are stalled in this MB (Unspecified)
system.caches.controllers5.xyzStatsObject.power_state.pwrStateResidencyTicks::UNDEFINED 277636223000                       # Cumulative time (in ticks) in various power states (Tick)
system.caches.controllers6.cacheMemory.m_demand_hits            0                       # Number of cache demand hits (Unspecified)
system.caches.controllers6.cacheMemory.m_demand_misses            0                       # Number of cache demand misses (Unspecified)
system.caches.controllers6.cacheMemory.m_demand_accesses            0                       # Number of cache demand accesses (Unspecified)
system.caches.controllers6.forwardFromDir.m_buf_msgs     0.000585                       # Average number of messages in buffer (Unspecified)
system.caches.controllers6.forwardFromDir.m_stall_time  1587.386074                       # Average number of cycles messages are stalled in this MB (Unspecified)
system.caches.controllers6.forwardFromDir.m_stall_count          975                       # Number of times messages were stalled (Unspecified)
system.caches.controllers6.forwardToL0.m_buf_msgs     0.000421                       # Average number of messages in buffer (Unspecified)
system.caches.controllers6.forwardToL0.m_stall_time   301.602914                       # Average number of cycles messages are stalled in this MB (Unspecified)
system.caches.controllers6.power_state.pwrStateResidencyTicks::UNDEFINED 277636223000                       # Cumulative time (in ticks) in various power states (Tick)
system.caches.controllers6.requestFromL0.m_buf_msgs     0.045022                       # Average number of messages in buffer (Unspecified)
system.caches.controllers6.requestFromL0.m_stall_time 19227.019055                       # Average number of cycles messages are stalled in this MB (Unspecified)
system.caches.controllers6.requestFromL0.m_stall_count       157026                       # Number of times messages were stalled (Unspecified)
system.caches.controllers6.requestToDir.m_buf_msgs     0.001203                       # Average number of messages in buffer (Unspecified)
system.caches.controllers6.requestToDir.m_stall_time   301.633728                       # Average number of cycles messages are stalled in this MB (Unspecified)
system.caches.controllers6.responseFromDirOrSibling.m_buf_msgs     0.000657                       # Average number of messages in buffer (Unspecified)
system.caches.controllers6.responseFromDirOrSibling.m_stall_time  3900.751899                       # Average number of cycles messages are stalled in this MB (Unspecified)
system.caches.controllers6.responseFromL0.m_buf_msgs     0.000021                       # Average number of messages in buffer (Unspecified)
system.caches.controllers6.responseFromL0.m_stall_time  1508.014410                       # Average number of cycles messages are stalled in this MB (Unspecified)
system.caches.controllers6.responseToDirOrSibling.m_buf_msgs     0.000004                       # Average number of messages in buffer (Unspecified)
system.caches.controllers6.responseToDirOrSibling.m_stall_time   301.600458                       # Average number of cycles messages are stalled in this MB (Unspecified)
system.caches.controllers6.responseToL0.m_buf_msgs     0.001217                       # Average number of messages in buffer (Unspecified)
system.caches.controllers6.responseToL0.m_stall_time   301.633663                       # Average number of cycles messages are stalled in this MB (Unspecified)
system.caches.controllers6.xyzStatsObject.power_state.pwrStateResidencyTicks::UNDEFINED 277636223000                       # Cumulative time (in ticks) in various power states (Tick)
system.caches.controllers7.cacheMemory.m_demand_hits            0                       # Number of cache demand hits (Unspecified)
system.caches.controllers7.cacheMemory.m_demand_misses            0                       # Number of cache demand misses (Unspecified)
system.caches.controllers7.cacheMemory.m_demand_accesses            0                       # Number of cache demand accesses (Unspecified)
system.caches.controllers7.forwardFromDir.m_buf_msgs     0.000559                       # Average number of messages in buffer (Unspecified)
system.caches.controllers7.forwardFromDir.m_stall_time  1604.302635                       # Average number of cycles messages are stalled in this MB (Unspecified)
system.caches.controllers7.forwardFromDir.m_stall_count          271                       # Number of times messages were stalled (Unspecified)
system.caches.controllers7.forwardToL0.m_buf_msgs     0.000414                       # Average number of messages in buffer (Unspecified)
system.caches.controllers7.forwardToL0.m_stall_time   301.379413                       # Average number of cycles messages are stalled in this MB (Unspecified)
system.caches.controllers7.power_state.pwrStateResidencyTicks::UNDEFINED 277636223000                       # Cumulative time (in ticks) in various power states (Tick)
system.caches.controllers7.requestFromL0.m_buf_msgs     0.044417                       # Average number of messages in buffer (Unspecified)
system.caches.controllers7.requestFromL0.m_stall_time 19037.887632                       # Average number of cycles messages are stalled in this MB (Unspecified)
system.caches.controllers7.requestFromL0.m_stall_count       158536                       # Number of times messages were stalled (Unspecified)
system.caches.controllers7.requestToDir.m_buf_msgs     0.001210                       # Average number of messages in buffer (Unspecified)
system.caches.controllers7.requestToDir.m_stall_time   301.422689                       # Average number of cycles messages are stalled in this MB (Unspecified)
system.caches.controllers7.responseFromDirOrSibling.m_buf_msgs     0.000663                       # Average number of messages in buffer (Unspecified)
system.caches.controllers7.responseFromDirOrSibling.m_stall_time  3914.196283                       # Average number of cycles messages are stalled in this MB (Unspecified)
system.caches.controllers7.responseFromL0.m_buf_msgs     0.000024                       # Average number of messages in buffer (Unspecified)
system.caches.controllers7.responseFromL0.m_stall_time  1506.900315                       # Average number of cycles messages are stalled in this MB (Unspecified)
system.caches.controllers7.responseToDirOrSibling.m_buf_msgs     0.000001                       # Average number of messages in buffer (Unspecified)
system.caches.controllers7.responseToDirOrSibling.m_stall_time   301.369217                       # Average number of cycles messages are stalled in this MB (Unspecified)
system.caches.controllers7.responseToL0.m_buf_msgs     0.001169                       # Average number of messages in buffer (Unspecified)
system.caches.controllers7.responseToL0.m_stall_time   301.422257                       # Average number of cycles messages are stalled in this MB (Unspecified)
system.caches.controllers7.xyzStatsObject.power_state.pwrStateResidencyTicks::UNDEFINED 277636223000                       # Cumulative time (in ticks) in various power states (Tick)
system.caches.controllers8.cacheMemory.m_demand_hits            0                       # Number of cache demand hits (Unspecified)
system.caches.controllers8.cacheMemory.m_demand_misses            0                       # Number of cache demand misses (Unspecified)
system.caches.controllers8.cacheMemory.m_demand_accesses            0                       # Number of cache demand accesses (Unspecified)
system.caches.controllers8.forwardToCache.m_buf_msgs     0.004078                       # Average number of messages in buffer (Unspecified)
system.caches.controllers8.forwardToCache.m_stall_time   999.985355                       # Average number of cycles messages are stalled in this MB (Unspecified)
system.caches.controllers8.power_state.pwrStateResidencyTicks::UNDEFINED 277636223000                       # Cumulative time (in ticks) in various power states (Tick)
system.caches.controllers8.requestFromCache.m_not_avail_count       651696                       # Number of times this buffer did not have N slots available (Unspecified)
system.caches.controllers8.requestFromCache.m_buf_msgs     0.007595                       # Average number of messages in buffer (Unspecified)
system.caches.controllers8.requestFromCache.m_stall_time 108594.372994                       # Average number of cycles messages are stalled in this MB (Unspecified)
system.caches.controllers8.requestFromCache.m_occupancy     0.007595                       # Average occupancy of buffer capacity (Unspecified)
system.caches.controllers8.requestToMemory.m_buf_msgs     0.004064                       # Average number of messages in buffer (Unspecified)
system.caches.controllers8.requestToMemory.m_stall_time   999.999957                       # Average number of cycles messages are stalled in this MB (Unspecified)
system.caches.controllers8.responseFromMemory.m_buf_msgs     0.004064                       # Average number of messages in buffer (Unspecified)
system.caches.controllers8.responseFromMemory.m_stall_time   999.999593                       # Average number of cycles messages are stalled in this MB (Unspecified)
system.caches.controllers8.responseToCache.m_buf_msgs     0.036580                       # Average number of messages in buffer (Unspecified)
system.caches.controllers8.responseToCache.m_stall_time  8999.996045                       # Average number of cycles messages are stalled in this MB (Unspecified)
system.caches.controllers8.xyzCacheMemory.m_demand_hits            0                       # Number of cache demand hits (Unspecified)
system.caches.controllers8.xyzCacheMemory.m_demand_misses            0                       # Number of cache demand misses (Unspecified)
system.caches.controllers8.xyzCacheMemory.m_demand_accesses            0                       # Number of cache demand accesses (Unspecified)
system.caches.controllers8.xyzStatsObject.power_state.pwrStateResidencyTicks::UNDEFINED 277636223000                       # Cumulative time (in ticks) in various power states (Tick)
system.caches.network.msg_count.Control      11298934                       (Unspecified)
system.caches.network.msg_byte.Control       90391472                       (Unspecified)
system.caches.network.msg_count.Data          7336944                       (Unspecified)
system.caches.network.msg_byte.Data         528259968                       (Unspecified)
system.caches.network.msg_count.Response_Data      1283262                       (Unspecified)
system.caches.network.msg_byte.Response_Data     92394864                       (Unspecified)
system.caches.network.int_link_buffers102.m_buf_msgs     0.000421                       # Average number of messages in buffer (Unspecified)
system.caches.network.int_link_buffers102.m_stall_time   904.839557                       # Average number of cycles messages are stalled in this MB (Unspecified)
system.caches.network.int_link_buffers103.m_buf_msgs     0.001217                       # Average number of messages in buffer (Unspecified)
system.caches.network.int_link_buffers103.m_stall_time   904.900968                       # Average number of cycles messages are stalled in this MB (Unspecified)
system.caches.network.int_link_buffers107.m_buf_msgs     0.000001                       # Average number of messages in buffer (Unspecified)
system.caches.network.int_link_buffers107.m_stall_time   904.396783                       # Average number of cycles messages are stalled in this MB (Unspecified)
system.caches.network.int_link_buffers11.m_buf_msgs     0.001278                       # Average number of messages in buffer (Unspecified)
system.caches.network.int_link_buffers11.m_stall_time  1218.125796                       # Average number of cycles messages are stalled in this MB (Unspecified)
system.caches.network.int_link_buffers114.m_buf_msgs     0.000002                       # Average number of messages in buffer (Unspecified)
system.caches.network.int_link_buffers114.m_stall_time   904.801352                       # Average number of cycles messages are stalled in this MB (Unspecified)
system.caches.network.int_link_buffers12.m_buf_msgs     0.000022                       # Average number of messages in buffer (Unspecified)
system.caches.network.int_link_buffers12.m_stall_time   905.132573                       # Average number of cycles messages are stalled in this MB (Unspecified)
system.caches.network.int_link_buffers121.m_buf_msgs     0.000001                       # Average number of messages in buffer (Unspecified)
system.caches.network.int_link_buffers121.m_stall_time   893.307027                       # Average number of cycles messages are stalled in this MB (Unspecified)
system.caches.network.int_link_buffers126.m_buf_msgs     0.130835                       # Average number of messages in buffer (Unspecified)
system.caches.network.int_link_buffers126.m_stall_time 47073.062833                       # Average number of cycles messages are stalled in this MB (Unspecified)
system.caches.network.int_link_buffers137.m_buf_msgs     0.000414                       # Average number of messages in buffer (Unspecified)
[...]
system.caches.controllers2.xyzStatsObjectlatency::underflows            0      0.00%      0.00% # Mem access latency (Unspecified)
system.caches.controllers2.xyzStatsObjectlatency::0-49999       337782    100.00%    100.00% # Mem access latency (Unspecified)
system.caches.controllers2.xyzStatsObjectlatency::50000-99999            0      0.00%    100.00% # Mem access latency (Unspecified)
system.caches.controllers2.xyzStatsObjectlatency::100000            0      0.00%    100.00% # Mem access latency (Unspecified)
system.caches.controllers2.xyzStatsObjectlatency::overflows            0      0.00%    100.00% # Mem access latency (Unspecified)
system.caches.controllers2.xyzStatsObjectlatency::min_value           10                       # Mem access latency (Unspecified)
system.caches.controllers2.xyzStatsObjectlatency::max_value         1121                       # Mem access latency (Unspecified)
system.caches.controllers2.xyzStatsObjectlatency::total       337782                       # Mem access latency (Unspecified)
system.caches.controllers3.xyzStatsObject.total_put            0                       # Total number of put (PutM + PutS) (Unspecified)
system.caches.controllers3.xyzStatsObject.total_put_as_wt            0                       # Total number of put as write through (Unspecified)
system.caches.controllers3.xyzStatsObject.total_putm            0                       # Total number of PutM (Unspecified)
system.caches.controllers3.xyzStatsObject.total_putm_as_wt            0                       # Total number of PutM as write through (Unspecified)
system.caches.controllers3.xyzStatsObject.total_puts            0                       # Total number of PutS (Unspecified)
system.caches.controllers3.xyzStatsObject.total_puts_as_wt            0                       # Total number of PutS as write through (Unspecified)
system.caches.controllers3.xyzStatsObject.total_repl            0                       # Total Replacement (Unspecified)
system.caches.controllers3.xyzStatsObject.total_repl_llc            0                       # Total Replacement of LLC line (Unspecified)
system.caches.controllers3.xyzStatsObject.total_repl_owned            0                       # Total Replacement of owned line (Unspecified)
system.caches.controllers3.xyzStatsObject.total_repl_shared            0                       # Total Replacement of shared line (Unspecified)
system.caches.controllers3.xyzStatsObject.wt_putRatio          nan                       # WT / Put (Unspecified)
system.caches.controllers3.xyzStatsObject.wt_putmRatio          nan                       # PutM WT / PutM (Unspecified)
system.caches.controllers3.xyzStatsObject.wt_putsRatio          nan                       # PutS WT / PutS (Unspecified)
system.caches.controllers3.xyzStatsObjectlatency::samples       324590                       # Mem access latency (Unspecified)
system.caches.controllers3.xyzStatsObjectlatency::mean   154.053816                       # Mem access latency (Unspecified)
system.caches.controllers3.xyzStatsObjectlatency::stdev   220.698116                       # Mem access latency (Unspecified)
system.caches.controllers3.xyzStatsObjectlatency::underflows            0      0.00%      0.00% # Mem access latency (Unspecified)
system.caches.controllers3.xyzStatsObjectlatency::0-49999       324590    100.00%    100.00% # Mem access latency (Unspecified)
system.caches.controllers3.xyzStatsObjectlatency::50000-99999            0      0.00%    100.00% # Mem access latency (Unspecified)
system.caches.controllers3.xyzStatsObjectlatency::100000            0      0.00%    100.00% # Mem access latency (Unspecified)
system.caches.controllers3.xyzStatsObjectlatency::overflows            0      0.00%    100.00% # Mem access latency (Unspecified)
system.caches.controllers3.xyzStatsObjectlatency::min_value           10                       # Mem access latency (Unspecified)
system.caches.controllers3.xyzStatsObjectlatency::max_value         1124                       # Mem access latency (Unspecified)
system.caches.controllers3.xyzStatsObjectlatency::total       324590                       # Mem access latency (Unspecified)
system.caches.controllers4.xyzStatsObject.total_put            0                       # Total number of put (PutM + PutS) (Unspecified)
system.caches.controllers4.xyzStatsObject.total_put_as_wt            0                       # Total number of put as write through (Unspecified)
system.caches.controllers4.xyzStatsObject.total_putm            0                       # Total number of PutM (Unspecified)
system.caches.controllers4.xyzStatsObject.total_putm_as_wt            0                       # Total number of PutM as write through (Unspecified)
system.caches.controllers4.xyzStatsObject.total_puts            0                       # Total number of PutS (Unspecified)
system.caches.controllers4.xyzStatsObject.total_puts_as_wt            0                       # Total number of PutS as write through (Unspecified)
system.caches.controllers4.xyzStatsObject.total_repl            0                       # Total Replacement (Unspecified)
system.caches.controllers4.xyzStatsObject.total_repl_llc            0                       # Total Replacement of LLC line (Unspecified)
system.caches.controllers4.xyzStatsObject.total_repl_owned            0                       # Total Replacement of owned line (Unspecified)
system.caches.controllers4.xyzStatsObject.total_repl_shared            0                       # Total Replacement of shared line (Unspecified)
system.caches.controllers4.xyzStatsObject.wt_putRatio          nan                       # WT / Put (Unspecified)
system.caches.controllers4.xyzStatsObject.wt_putmRatio          nan                       # PutM WT / PutM (Unspecified)
system.caches.controllers4.xyzStatsObject.wt_putsRatio          nan                       # PutS WT / PutS (Unspecified)
system.caches.controllers4.xyzStatsObjectlatency::samples       604617                       # Mem access latency (Unspecified)
system.caches.controllers4.xyzStatsObjectlatency::mean   223.928274                       # Mem access latency (Unspecified)
system.caches.controllers4.xyzStatsObjectlatency::stdev   121.109689                       # Mem access latency (Unspecified)
system.caches.controllers4.xyzStatsObjectlatency::underflows            0      0.00%      0.00% # Mem access latency (Unspecified)
system.caches.controllers4.xyzStatsObjectlatency::0-49999       604617    100.00%    100.00% # Mem access latency (Unspecified)
system.caches.controllers4.xyzStatsObjectlatency::50000-99999            0      0.00%    100.00% # Mem access latency (Unspecified)
system.caches.controllers4.xyzStatsObjectlatency::100000            0      0.00%    100.00% # Mem access latency (Unspecified)
system.caches.controllers4.xyzStatsObjectlatency::overflows            0      0.00%    100.00% # Mem access latency (Unspecified)
system.caches.controllers4.xyzStatsObjectlatency::min_value           15                       # Mem access latency (Unspecified)
system.caches.controllers4.xyzStatsObjectlatency::max_value          753                       # Mem access latency (Unspecified)
system.caches.controllers4.xyzStatsObjectlatency::total       604617                       # Mem access latency (Unspecified)
system.caches.controllers5.xyzStatsObject.total_put            0                       # Total number of put (PutM + PutS) (Unspecified)
system.caches.controllers5.xyzStatsObject.total_put_as_wt            0                       # Total number of put as write through (Unspecified)
system.caches.controllers5.xyzStatsObject.total_putm            0                       # Total number of PutM (Unspecified)
system.caches.controllers5.xyzStatsObject.total_putm_as_wt            0                       # Total number of PutM as write through (Unspecified)
system.caches.controllers5.xyzStatsObject.total_puts            0                       # Total number of PutS (Unspecified)
system.caches.controllers5.xyzStatsObject.total_puts_as_wt            0                       # Total number of PutS as write through (Unspecified)
system.caches.controllers5.xyzStatsObject.total_repl            0                       # Total Replacement (Unspecified)
system.caches.controllers5.xyzStatsObject.total_repl_llc            0                       # Total Replacement of LLC line (Unspecified)
system.caches.controllers5.xyzStatsObject.total_repl_owned            0                       # Total Replacement of owned line (Unspecified)
system.caches.controllers5.xyzStatsObject.total_repl_shared            0                       # Total Replacement of shared line (Unspecified)
system.caches.controllers5.xyzStatsObject.wt_putRatio          nan                       # WT / Put (Unspecified)
system.caches.controllers5.xyzStatsObject.wt_putmRatio          nan                       # PutM WT / PutM (Unspecified)
system.caches.controllers5.xyzStatsObject.wt_putsRatio          nan                       # PutS WT / PutS (Unspecified)
system.caches.controllers5.xyzStatsObjectlatency::samples       162087                       # Mem access latency (Unspecified)
system.caches.controllers5.xyzStatsObjectlatency::mean   205.064595                       # Mem access latency (Unspecified)
system.caches.controllers5.xyzStatsObjectlatency::stdev   187.240948                       # Mem access latency (Unspecified)
system.caches.controllers5.xyzStatsObjectlatency::underflows            0      0.00%      0.00% # Mem access latency (Unspecified)
system.caches.controllers5.xyzStatsObjectlatency::0-49999       162087    100.00%    100.00% # Mem access latency (Unspecified)
system.caches.controllers5.xyzStatsObjectlatency::50000-99999            0      0.00%    100.00% # Mem access latency (Unspecified)
system.caches.controllers5.xyzStatsObjectlatency::100000            0      0.00%    100.00% # Mem access latency (Unspecified)
system.caches.controllers5.xyzStatsObjectlatency::overflows            0      0.00%    100.00% # Mem access latency (Unspecified)
system.caches.controllers5.xyzStatsObjectlatency::min_value           15                       # Mem access latency (Unspecified)
system.caches.controllers5.xyzStatsObjectlatency::max_value          740                       # Mem access latency (Unspecified)
system.caches.controllers5.xyzStatsObjectlatency::total       162087                       # Mem access latency (Unspecified)
system.caches.controllers6.xyzStatsObject.total_put            0                       # Total number of put (PutM + PutS) (Unspecified)
system.caches.controllers6.xyzStatsObject.total_put_as_wt            0                       # Total number of put as write through (Unspecified)
system.caches.controllers6.xyzStatsObject.total_putm            0                       # Total number of PutM (Unspecified)
system.caches.controllers6.xyzStatsObject.total_putm_as_wt            0                       # Total number of PutM as write through (Unspecified)
system.caches.controllers6.xyzStatsObject.total_puts            0                       # Total number of PutS (Unspecified)
system.caches.controllers6.xyzStatsObject.total_puts_as_wt            0                       # Total number of PutS as write through (Unspecified)
system.caches.controllers6.xyzStatsObject.total_repl            0                       # Total Replacement (Unspecified)
system.caches.controllers6.xyzStatsObject.total_repl_llc            0                       # Total Replacement of LLC line (Unspecified)
system.caches.controllers6.xyzStatsObject.total_repl_owned            0                       # Total Replacement of owned line (Unspecified)
system.caches.controllers6.xyzStatsObject.total_repl_shared            0                       # Total Replacement of shared line (Unspecified)
system.caches.controllers6.xyzStatsObject.wt_putRatio          nan                       # WT / Put (Unspecified)
system.caches.controllers6.xyzStatsObject.wt_putmRatio          nan                       # PutM WT / PutM (Unspecified)
system.caches.controllers6.xyzStatsObject.wt_putsRatio          nan                       # PutS WT / PutS (Unspecified)
system.caches.controllers6.xyzStatsObjectlatency::samples       182271                       # Mem access latency (Unspecified)
system.caches.controllers6.xyzStatsObjectlatency::mean   188.153102                       # Mem access latency (Unspecified)
system.caches.controllers6.xyzStatsObjectlatency::stdev   184.172271                       # Mem access latency (Unspecified)
system.caches.controllers6.xyzStatsObjectlatency::underflows            0      0.00%      0.00% # Mem access latency (Unspecified)
system.caches.controllers6.xyzStatsObjectlatency::0-49999       182271    100.00%    100.00% # Mem access latency (Unspecified)
system.caches.controllers6.xyzStatsObjectlatency::50000-99999            0      0.00%    100.00% # Mem access latency (Unspecified)
system.caches.controllers6.xyzStatsObjectlatency::100000            0      0.00%    100.00% # Mem access latency (Unspecified)
system.caches.controllers6.xyzStatsObjectlatency::overflows            0      0.00%    100.00% # Mem access latency (Unspecified)
system.caches.controllers6.xyzStatsObjectlatency::min_value           15                       # Mem access latency (Unspecified)
system.caches.controllers6.xyzStatsObjectlatency::max_value          732                       # Mem access latency (Unspecified)
system.caches.controllers6.xyzStatsObjectlatency::total       182271                       # Mem access latency (Unspecified)
system.caches.controllers7.xyzStatsObject.total_put            0                       # Total number of put (PutM + PutS) (Unspecified)
system.caches.controllers7.xyzStatsObject.total_put_as_wt            0                       # Total number of put as write through (Unspecified)
system.caches.controllers7.xyzStatsObject.total_putm            0                       # Total number of PutM (Unspecified)
system.caches.controllers7.xyzStatsObject.total_putm_as_wt            0                       # Total number of PutM as write through (Unspecified)
system.caches.controllers7.xyzStatsObject.total_puts            0                       # Total number of PutS (Unspecified)
system.caches.controllers7.xyzStatsObject.total_puts_as_wt            0                       # Total number of PutS as write through (Unspecified)
system.caches.controllers7.xyzStatsObject.total_repl            0                       # Total Replacement (Unspecified)
system.caches.controllers7.xyzStatsObject.total_repl_llc            0                       # Total Replacement of LLC line (Unspecified)
system.caches.controllers7.xyzStatsObject.total_repl_owned            0                       # Total Replacement of owned line (Unspecified)
system.caches.controllers7.xyzStatsObject.total_repl_shared            0                       # Total Replacement of shared line (Unspecified)
system.caches.controllers7.xyzStatsObject.wt_putRatio          nan                       # WT / Put (Unspecified)
system.caches.controllers7.xyzStatsObject.wt_putmRatio          nan                       # PutM WT / PutM (Unspecified)
system.caches.controllers7.xyzStatsObject.wt_putsRatio          nan                       # PutS WT / PutS (Unspecified)
system.caches.controllers7.xyzStatsObjectlatency::samples       183916                       # Mem access latency (Unspecified)
system.caches.controllers7.xyzStatsObjectlatency::mean   187.593124                       # Mem access latency (Unspecified)
system.caches.controllers7.xyzStatsObjectlatency::stdev   180.241385                       # Mem access latency (Unspecified)
system.caches.controllers7.xyzStatsObjectlatency::underflows            0      0.00%      0.00% # Mem access latency (Unspecified)
system.caches.controllers7.xyzStatsObjectlatency::0-49999       183916    100.00%    100.00% # Mem access latency (Unspecified)
system.caches.controllers7.xyzStatsObjectlatency::50000-99999            0      0.00%    100.00% # Mem access latency (Unspecified)
system.caches.controllers7.xyzStatsObjectlatency::100000            0      0.00%    100.00% # Mem access latency (Unspecified)
system.caches.controllers7.xyzStatsObjectlatency::overflows            0      0.00%    100.00% # Mem access latency (Unspecified)
system.caches.controllers7.xyzStatsObjectlatency::min_value           15                       # Mem access latency (Unspecified)
system.caches.controllers7.xyzStatsObjectlatency::max_value          740                       # Mem access latency (Unspecified)
system.caches.controllers7.xyzStatsObjectlatency::total       183916                       # Mem access latency (Unspecified)
system.caches.controllers8.xyzStatsObject.total_put      1010040                       # Total number of put (PutM + PutS) (Unspecified)
system.caches.controllers8.xyzStatsObject.total_put_as_wt       641548                       # Total number of put as write through (Unspecified)
system.caches.controllers8.xyzStatsObject.total_putm       325848                       # Total number of PutM (Unspecified)
system.caches.controllers8.xyzStatsObject.total_putm_as_wt       246285                       # Total number of PutM as write through (Unspecified)
system.caches.controllers8.xyzStatsObject.total_puts       684192                       # Total number of PutS (Unspecified)
system.caches.controllers8.xyzStatsObject.total_puts_as_wt       395263                       # Total number of PutS as write through (Unspecified)
system.caches.controllers8.xyzStatsObject.total_repl            0                       # Total Replacement (Unspecified)
system.caches.controllers8.xyzStatsObject.total_repl_llc            0                       # Total Replacement of LLC line (Unspecified)
system.caches.controllers8.xyzStatsObject.total_repl_owned            0                       # Total Replacement of owned line (Unspecified)
system.caches.controllers8.xyzStatsObject.total_repl_shared            0                       # Total Replacement of shared line (Unspecified)
system.caches.controllers8.xyzStatsObject.wt_putRatio     0.635171                       # WT / Put (Unspecified)
system.caches.controllers8.xyzStatsObject.wt_putmRatio     0.755828                       # PutM WT / PutM (Unspecified)
system.caches.controllers8.xyzStatsObject.wt_putsRatio     0.577708                       # PutS WT / PutS (Unspecified)
system.caches.controllers8.xyzStatsObjectlatency::samples            0                       # Mem access latency (Unspecified)
system.caches.controllers8.xyzStatsObjectlatency::mean          nan                       # Mem access latency (Unspecified)
system.caches.controllers8.xyzStatsObjectlatency::stdev          nan                       # Mem access latency (Unspecified)
system.caches.controllers8.xyzStatsObjectlatency::underflows            0                       # Mem access latency (Unspecified)
system.caches.controllers8.xyzStatsObjectlatency::0-49999            0                       # Mem access latency (Unspecified)
system.caches.controllers8.xyzStatsObjectlatency::50000-99999            0                       # Mem access latency (Unspecified)
system.caches.controllers8.xyzStatsObjectlatency::100000            0                       # Mem access latency (Unspecified)
system.caches.controllers8.xyzStatsObjectlatency::overflows            0                       # Mem access latency (Unspecified)
system.caches.controllers8.xyzStatsObjectlatency::min_value            0                       # Mem access latency (Unspecified)
system.caches.controllers8.xyzStatsObjectlatency::max_value            0                       # Mem access latency (Unspecified)
system.caches.controllers8.xyzStatsObjectlatency::total            0                       # Mem access latency (Unspecified)

---------- End Simulation Statistics   ----------
