
---------- Begin Simulation Statistics ----------
simSeconds                                   0.281833                       # Number of seconds simulated (Second)
simTicks                                 281833471000                       # Number of ticks simulated (Tick)
finalTick                                281833471000                       # Number of ticks from beginning of simulation (restored from checkpoints and never reset) (Tick)
simFreq                                  1000000000000                       # The number of ticks per simulated second ((Tick/Second))
hostSeconds                                     70.89                       # Real time elapsed on the host (Second)
hostTickRate                               3975383729                       # The number of ticks simulated per host second (ticks/s) ((Tick/Second))
hostMemory                                    4951312                       # Number of bytes of host memory used (Byte)
simInsts                                     50408068                       # Number of instructions simulated (Count)
simOps                                       83391713                       # Number of ops (including micro ops) simulated (Count)
hostInstRate                                   711020                       # Simulator instruction rate (inst/s) ((Count/Second))
hostOpRate                                    1176261                       # Simulator op (including micro ops) rate (op/s) ((Count/Second))
system.caches.m_outstandReqHistSeqr::bucket_size            1                       (Unspecified)
system.caches.m_outstandReqHistSeqr::max_bucket            9                       (Unspecified)
system.caches.m_outstandReqHistSeqr::samples     86238393                       (Unspecified)
system.caches.m_outstandReqHistSeqr::mean            1                       (Unspecified)
system.caches.m_outstandReqHistSeqr::gmean            1                       (Unspecified)
system.caches.m_outstandReqHistSeqr      |           0      0.00%      0.00% |    86238393    100.00%    100.00% |           0      0.00%    100.00% |           0      0.00%    100.00% |           0      0.00%    100.00% |           0      0.00%    100.00% |           0      0.00%    100.00% |           0      0.00%    100.00% |           0      0.00%    100.00% |           0      0.00%    100.00% (Unspecified)
system.caches.m_outstandReqHistSeqr::total     86238393                       (Unspecified)
system.caches.m_latencyHistSeqr::bucket_size          128                       (Unspecified)
system.caches.m_latencyHistSeqr::max_bucket         1279                       (Unspecified)
system.caches.m_latencyHistSeqr::samples     86238393                       (Unspecified)
system.caches.m_latencyHistSeqr::mean        4.815434                       (Unspecified)
system.caches.m_latencyHistSeqr::gmean       1.105302                       (Unspecified)
system.caches.m_latencyHistSeqr::stdev      39.458608                       (Unspecified)
system.caches.m_latencyHistSeqr          |    85361094     98.98%     98.98% |      310755      0.36%     99.34% |      332128      0.39%     99.73% |       86215      0.10%     99.83% |       70188      0.08%     99.91% |       42431      0.05%     99.96% |       21817      0.03%     99.98% |       13626      0.02%    100.00% |         139      0.00%    100.00% |           0      0.00%    100.00% (Unspecified)
system.caches.m_latencyHistSeqr::total       86238393                       (Unspecified)
system.caches.m_hitLatencyHistSeqr::bucket_size            1                       (Unspecified)
system.caches.m_hitLatencyHistSeqr::max_bucket            9                       (Unspecified)
system.caches.m_hitLatencyHistSeqr::samples     84042261                       (Unspecified)
system.caches.m_hitLatencyHistSeqr::mean            1                       (Unspecified)
system.caches.m_hitLatencyHistSeqr::gmean            1                       (Unspecified)
system.caches.m_hitLatencyHistSeqr       |           0      0.00%      0.00% |    84042261    100.00%    100.00% |           0      0.00%    100.00% |           0      0.00%    100.00% |           0      0.00%    100.00% |           0      0.00%    100.00% |           0      0.00%    100.00% |           0      0.00%    100.00% |           0      0.00%    100.00% |           0      0.00%    100.00% (Unspecified)
system.caches.m_hitLatencyHistSeqr::total     84042261                       (Unspecified)
system.caches.m_missLatencyHistSeqr::bucket_size          128                       (Unspecified)
system.caches.m_missLatencyHistSeqr::max_bucket         1279                       (Unspecified)
system.caches.m_missLatencyHistSeqr::samples      2196132                       (Unspecified)
system.caches.m_missLatencyHistSeqr::mean   150.825653                       (Unspecified)
system.caches.m_missLatencyHistSeqr::gmean    50.982989                       (Unspecified)
system.caches.m_missLatencyHistSeqr::stdev   198.151415                       (Unspecified)
system.caches.m_missLatencyHistSeqr      |     1318833     60.05%     60.05% |      310755     14.15%     74.20% |      332128     15.12%     89.33% |       86215      3.93%     93.25% |       70188      3.20%     96.45% |       42431      1.93%     98.38% |       21817      0.99%     99.37% |       13626      0.62%     99.99% |         139      0.01%    100.00% |           0      0.00%    100.00% (Unspecified)
system.caches.m_missLatencyHistSeqr::total      2196132                       (Unspecified)
system.caches.L0Cache_Controller.Load    |     7346406     60.46%     60.46% |     1457693     12.00%     72.45% |     1620570     13.34%     85.79% |     1727015     14.21%    100.00% (Unspecified)
system.caches.L0Cache_Controller.Load::total     12151684                       (Unspecified)
system.caches.L0Cache_Controller.Ifetch  |    38230802     55.20%     55.20% |     9435007     13.62%     68.83% |    10406373     15.03%     83.85% |    11181870     16.15%    100.00% (Unspecified)
system.caches.L0Cache_Controller.Ifetch::total     69254052                       (Unspecified)
system.caches.L0Cache_Controller.Store   |     3191574     66.04%     66.04% |      505003     10.45%     76.49% |      534266     11.06%     87.55% |      601814     12.45%    100.00% (Unspecified)
system.caches.L0Cache_Controller.Store::total      4832657                       (Unspecified)
system.caches.L0Cache_Controller.Replacement |     1077223     58.92%     58.92% |      223314     12.21%     71.14% |      272716     14.92%     86.05% |      254962     13.95%    100.00% (Unspecified)
system.caches.L0Cache_Controller.Replacement::total      1828215                       (Unspecified)
system.caches.L0Cache_Controller.Inv     |      359214     52.08%     52.08% |       98657     14.30%     66.38% |      116814     16.94%     83.32% |      115047     16.68%    100.00% (Unspecified)
system.caches.L0Cache_Controller.Inv::total       689732                       (Unspecified)
system.caches.L0Cache_Controller.Data    |     1136116     57.79%     57.79% |      250757     12.76%     70.55% |      292186     14.86%     85.41% |      286771     14.59%    100.00% (Unspecified)
system.caches.L0Cache_Controller.Data::total      1965830                       (Unspecified)
system.caches.L0Cache_Controller.ExData  |      114491     49.71%     49.71% |       32434     14.08%     63.80% |       45562     19.78%     83.58% |       37815     16.42%    100.00% (Unspecified)
system.caches.L0Cache_Controller.ExData::total       230302                       (Unspecified)
system.caches.L0Cache_Controller.I.Load  |      825332     54.45%     54.45% |      207313     13.68%     68.13% |      249245     16.44%     84.57% |      233907     15.43%    100.00% (Unspecified)
system.caches.L0Cache_Controller.I.Load::total      1515797                       (Unspecified)
system.caches.L0Cache_Controller.I.Ifetch |      150400     58.85%     58.85% |       30638     11.99%     70.84% |       35888     14.04%     84.88% |       38647     15.12%    100.00% (Unspecified)
system.caches.L0Cache_Controller.I.Ifetch::total       255573                       (Unspecified)
system.caches.L0Cache_Controller.I.Store |      214254     76.99%     76.99% |       17609      6.33%     83.32% |       24607      8.84%     92.16% |       21815      7.84%    100.00% (Unspecified)
system.caches.L0Cache_Controller.I.Store::total       278285                       (Unspecified)
system.caches.L0Cache_Controller.I.Inv   |      246509     52.61%     52.61% |       66469     14.19%     66.80% |       79847     17.04%     83.84% |       75698     16.16%    100.00% (Unspecified)
system.caches.L0Cache_Controller.I.Inv::total       468523                       (Unspecified)
system.caches.L0Cache_Controller.IS_D.Data |      861241     55.89%     55.89% |      205517     13.34%     69.22% |      239571     15.55%     84.77% |      234739     15.23%    100.00% (Unspecified)
system.caches.L0Cache_Controller.IS_D.Data::total      1541068                       (Unspecified)
system.caches.L0Cache_Controller.IS_D.ExData |      114491     49.71%     49.71% |       32434     14.08%     63.80% |       45562     19.78%     83.58% |       37815     16.42%    100.00% (Unspecified)
system.caches.L0Cache_Controller.IS_D.ExData::total       230302                       (Unspecified)
system.caches.L0Cache_Controller.IM_D.Inv |           0      0.00%      0.00% |           0      0.00%      0.00% |           1     50.00%     50.00% |           1     50.00%    100.00% (Unspecified)
system.caches.L0Cache_Controller.IM_D.Inv::total            2                       (Unspecified)
system.caches.L0Cache_Controller.IM_D.Data |      274875     64.71%     64.71% |       45240     10.65%     75.36% |       52615     12.39%     87.75% |       52032     12.25%    100.00% (Unspecified)
system.caches.L0Cache_Controller.IM_D.Data::total       424762                       (Unspecified)
system.caches.L0Cache_Controller.S.Load  |     3649157     66.16%     66.16% |      558240     10.12%     76.28% |      619976     11.24%     87.52% |      688658     12.48%    100.00% (Unspecified)
system.caches.L0Cache_Controller.S.Load::total      5516031                       (Unspecified)
system.caches.L0Cache_Controller.S.Ifetch |    38080402     55.19%     55.19% |     9404369     13.63%     68.82% |    10370485     15.03%     83.85% |    11143223     16.15%    100.00% (Unspecified)
system.caches.L0Cache_Controller.S.Ifetch::total     68998479                       (Unspecified)
system.caches.L0Cache_Controller.S.Store |       60621     41.39%     41.39% |       27631     18.86%     60.25% |       28008     19.12%     79.37% |       30217     20.63%    100.00% (Unspecified)
system.caches.L0Cache_Controller.S.Store::total       146477                       (Unspecified)
system.caches.L0Cache_Controller.S.Replacement |      708919     58.45%     58.45% |      151805     12.52%     70.97% |      180329     14.87%     85.84% |      171722     14.16%    100.00% (Unspecified)
system.caches.L0Cache_Controller.S.Replacement::total      1212775                       (Unspecified)
system.caches.L0Cache_Controller.S.Inv   |       91655     50.46%     50.46% |       26038     14.33%     64.79% |       31191     17.17%     81.97% |       32756     18.03%    100.00% (Unspecified)
system.caches.L0Cache_Controller.S.Inv::total       181640                       (Unspecified)
system.caches.L0Cache_Controller.M.Load  |     2871917     56.09%     56.09% |      692140     13.52%     69.61% |      751349     14.68%     84.29% |      804450     15.71%    100.00% (Unspecified)
system.caches.L0Cache_Controller.M.Load::total      5119856                       (Unspecified)
system.caches.L0Cache_Controller.M.Store |     2916699     66.17%     66.17% |      459763     10.43%     76.60% |      481651     10.93%     87.53% |      549782     12.47%    100.00% (Unspecified)
system.caches.L0Cache_Controller.M.Store::total      4407895                       (Unspecified)
system.caches.L0Cache_Controller.M.Replacement |      368304     59.84%     59.84% |       71509     11.62%     71.46% |       92387     15.01%     86.47% |       83240     13.53%    100.00% (Unspecified)
system.caches.L0Cache_Controller.M.Replacement::total       615440                       (Unspecified)
system.caches.L0Cache_Controller.M.Inv   |       21050     53.20%     53.20% |        6150     15.54%     68.74% |        5775     14.60%     83.34% |        6592     16.66%    100.00% (Unspecified)
system.caches.L0Cache_Controller.M.Inv::total        39567                       (Unspecified)
system.caches.L1Cache_Controller.Load    |      975732     55.08%     55.08% |      237951     13.43%     68.52% |      285133     16.10%     84.61% |      272554     15.39%    100.00% (Unspecified)
system.caches.L1Cache_Controller.Load::total      1771370                       (Unspecified)
system.caches.L1Cache_Controller.Store   |      274875     64.71%     64.71% |       45240     10.65%     75.36% |       52615     12.39%     87.75% |       52032     12.25%    100.00% (Unspecified)
system.caches.L1Cache_Controller.Store::total       424762                       (Unspecified)
system.caches.L1Cache_Controller.PutM    |      368304     59.84%     59.84% |       71509     11.62%     71.46% |       92387     15.01%     86.47% |       83240     13.53%    100.00% (Unspecified)
system.caches.L1Cache_Controller.PutM::total       615440                       (Unspecified)
system.caches.L1Cache_Controller.Replacement |     1119268     55.29%     55.29% |      274707     13.57%     68.85% |      313494     15.48%     84.34% |      317054     15.66%    100.00% (Unspecified)
system.caches.L1Cache_Controller.Replacement::total      2024523                       (Unspecified)
system.caches.L1Cache_Controller.FwdGetM |        2946     35.61%     35.61% |        2646     31.99%     67.60% |        2057     24.87%     92.47% |         623      7.53%    100.00% (Unspecified)
system.caches.L1Cache_Controller.FwdGetM::total         8272                       (Unspecified)
system.caches.L1Cache_Controller.Inv     |          45     37.50%     37.50% |          31     25.83%     63.33% |          33     27.50%     90.83% |          11      9.17%    100.00% (Unspecified)
system.caches.L1Cache_Controller.Inv::total          120                       (Unspecified)
system.caches.L1Cache_Controller.PutAck  |      539914     55.32%     55.32% |      132183     13.54%     68.87% |      151658     15.54%     84.41% |      152155     15.59%    100.00% (Unspecified)
system.caches.L1Cache_Controller.PutAck::total       975910                       (Unspecified)
system.caches.L1Cache_Controller.DataDirNoAcks |      603102     53.44%     53.44% |      160694     14.24%     67.68% |      181134     16.05%     83.73% |      183548     16.27%    100.00% (Unspecified)
system.caches.L1Cache_Controller.DataDirNoAcks::total      1128478                       (Unspecified)
system.caches.L1Cache_Controller.DataOwner |        1514     34.70%     34.70% |        1384     31.72%     66.42% |        1109     25.42%     91.84% |         356      8.16%    100.00% (Unspecified)
system.caches.L1Cache_Controller.DataOwner::total         4363                       (Unspecified)
system.caches.L1Cache_Controller.InvAck  |          33     27.50%     27.50% |          25     20.83%     48.33% |          16     13.33%     61.67% |          46     38.33%    100.00% (Unspecified)
system.caches.L1Cache_Controller.InvAck::total          120                       (Unspecified)
system.caches.L1Cache_Controller.WB_Data |       21050     53.20%     53.20% |        6150     15.54%     68.74% |        5775     14.60%     83.34% |        6592     16.66%    100.00% (Unspecified)
system.caches.L1Cache_Controller.WB_Data::total        39567                       (Unspecified)
system.caches.L1Cache_Controller.I.Load  |      402666     49.92%     49.92% |      122313     15.16%     65.09% |      141498     17.54%     82.63% |      140084     17.37%    100.00% (Unspecified)
system.caches.L1Cache_Controller.I.Load::total       806561                       (Unspecified)
system.caches.L1Cache_Controller.I.Store |      138958     79.72%     79.72% |       11381      6.53%     86.24% |       11400      6.54%     92.78% |       12579      7.22%    100.00% (Unspecified)
system.caches.L1Cache_Controller.I.Store::total       174318                       (Unspecified)
system.caches.L1Cache_Controller.IS_D.FwdGetM |          17     43.59%     43.59% |          12     30.77%     74.36% |           8     20.51%     94.87% |           2      5.13%    100.00% (Unspecified)
system.caches.L1Cache_Controller.IS_D.FwdGetM::total           39                       (Unspecified)
system.caches.L1Cache_Controller.IS_D.DataDirNoAcks |      401263     50.00%     50.00% |      120990     15.08%     65.08% |      140483     17.50%     82.58% |      139795     17.42%    100.00% (Unspecified)
system.caches.L1Cache_Controller.IS_D.DataDirNoAcks::total       802531                       (Unspecified)
system.caches.L1Cache_Controller.IS_D.DataOwner |        1403     34.81%     34.81% |        1323     32.83%     67.64% |        1015     25.19%     92.83% |         289      7.17%    100.00% (Unspecified)
system.caches.L1Cache_Controller.IS_D.DataOwner::total         4030                       (Unspecified)
system.caches.L1Cache_Controller.IM_AD.FwdGetM |           0      0.00%      0.00% |           2     66.67%     66.67% |           0      0.00%     66.67% |           1     33.33%    100.00% (Unspecified)
system.caches.L1Cache_Controller.IM_AD.FwdGetM::total            3                       (Unspecified)
system.caches.L1Cache_Controller.IM_AD.DataDirNoAcks |      138847     79.80%     79.80% |       11321      6.51%     86.31% |       11306      6.50%     92.81% |       12512      7.19%    100.00% (Unspecified)
system.caches.L1Cache_Controller.IM_AD.DataDirNoAcks::total       173986                       (Unspecified)
system.caches.L1Cache_Controller.IM_AD.DataOwner |         111     33.33%     33.33% |          61     18.32%     51.65% |          94     28.23%     79.88% |          67     20.12%    100.00% (Unspecified)
system.caches.L1Cache_Controller.IM_AD.DataOwner::total          333                       (Unspecified)
system.caches.L1Cache_Controller.IM_AD.InvAck |          15     40.54%     40.54% |          14     37.84%     78.38% |           4     10.81%     89.19% |           4     10.81%    100.00% (Unspecified)
system.caches.L1Cache_Controller.IM_AD.InvAck::total           37                       (Unspecified)
system.caches.L1Cache_Controller.S.Load  |      459978     62.28%     62.28% |       84527     11.45%     73.73% |       99088     13.42%     87.14% |       94944     12.86%    100.00% (Unspecified)
system.caches.L1Cache_Controller.S.Load::total       738537                       (Unspecified)
system.caches.L1Cache_Controller.S.Store |       62992     41.45%     41.45% |       28384     18.68%     60.13% |       29345     19.31%     79.44% |       31241     20.56%    100.00% (Unspecified)
system.caches.L1Cache_Controller.S.Store::total       151962                       (Unspecified)
system.caches.L1Cache_Controller.S.Replacement |      338119     52.01%     52.01% |       92477     14.23%     66.24% |      111006     17.08%     83.32% |      108443     16.68%    100.00% (Unspecified)
system.caches.L1Cache_Controller.S.Replacement::total       650045                       (Unspecified)
system.caches.L1Cache_Controller.S.Inv   |          45     37.82%     37.82% |          30     25.21%     63.03% |          33     27.73%     90.76% |          11      9.24%    100.00% (Unspecified)
system.caches.L1Cache_Controller.S.Inv::total          119                       (Unspecified)
system.caches.L1Cache_Controller.SM_AD.Inv |           0      0.00%      0.00% |           1    100.00%    100.00% |           0      0.00%    100.00% |           0      0.00%    100.00% (Unspecified)
system.caches.L1Cache_Controller.SM_AD.Inv::total            1                       (Unspecified)
system.caches.L1Cache_Controller.SM_AD.DataDirNoAcks |       62992     41.45%     41.45% |       28383     18.68%     60.13% |       29345     19.31%     79.44% |       31241     20.56%    100.00% (Unspecified)
system.caches.L1Cache_Controller.SM_AD.DataDirNoAcks::total       151961                       (Unspecified)
system.caches.L1Cache_Controller.SM_AD.InvAck |          18     21.69%     21.69% |          11     13.25%     34.94% |          12     14.46%     49.40% |          42     50.60%    100.00% (Unspecified)
system.caches.L1Cache_Controller.SM_AD.InvAck::total           83                       (Unspecified)
system.caches.L1Cache_Controller.M.Load  |      113088     49.98%     49.98% |       31111     13.75%     63.73% |       44547     19.69%     83.42% |       37526     16.58%    100.00% (Unspecified)
system.caches.L1Cache_Controller.M.Load::total       226272                       (Unspecified)
system.caches.L1Cache_Controller.M.Store |       72925     74.05%     74.05% |        5475      5.56%     79.61% |       11870     12.05%     91.66% |        8212      8.34%    100.00% (Unspecified)
system.caches.L1Cache_Controller.M.Store::total        98482                       (Unspecified)
system.caches.L1Cache_Controller.M.Replacement |      201795     61.93%     61.93% |       39706     12.18%     74.11% |       40652     12.48%     86.59% |       43712     13.41%    100.00% (Unspecified)
system.caches.L1Cache_Controller.M.Replacement::total       325865                       (Unspecified)
system.caches.L1Cache_Controller.M.FwdGetM |        1537     35.24%     35.24% |        1360     31.18%     66.41% |        1088     24.94%     91.36% |         377      8.64%    100.00% (Unspecified)
system.caches.L1Cache_Controller.M.FwdGetM::total         4362                       (Unspecified)
system.caches.L1Cache_Controller.M_P.PutM |      368304     59.84%     59.84% |       71509     11.62%     71.46% |       92387     15.01%     86.47% |       83240     13.53%    100.00% (Unspecified)
system.caches.L1Cache_Controller.M_P.PutM::total       615440                       (Unspecified)
system.caches.L1Cache_Controller.M_P.Replacement |       19660     55.05%     55.05% |        4886     13.68%     68.73% |        4816     13.48%     82.21% |        6353     17.79%    100.00% (Unspecified)
system.caches.L1Cache_Controller.M_P.Replacement::total        35715                       (Unspecified)
system.caches.L1Cache_Controller.M_P.FwdGetM |        1390     36.09%     36.09% |        1264     32.82%     68.92% |         958     24.88%     93.79% |         239      6.21%    100.00% (Unspecified)
system.caches.L1Cache_Controller.M_P.FwdGetM::total         3851                       (Unspecified)
system.caches.L1Cache_Controller.M_P.WB_Data |           0      0.00%      0.00% |           0      0.00%      0.00% |           1    100.00%    100.00% |           0      0.00%    100.00% (Unspecified)
system.caches.L1Cache_Controller.M_P.WB_Data::total            1                       (Unspecified)
system.caches.L1Cache_Controller.MP_D.Replacement |       19661     55.05%     55.05% |        4887     13.68%     68.73% |        4816     13.48%     82.21% |        6353     17.79%    100.00% (Unspecified)
system.caches.L1Cache_Controller.MP_D.Replacement::total        35717                       (Unspecified)
system.caches.L1Cache_Controller.MP_D.FwdGetM |           2     12.50%     12.50% |           7     43.75%     56.25% |           3     18.75%     75.00% |           4     25.00%    100.00% (Unspecified)
system.caches.L1Cache_Controller.MP_D.FwdGetM::total           16                       (Unspecified)
system.caches.L1Cache_Controller.MP_D.WB_Data |       21050     53.20%     53.20% |        6150     15.54%     68.75% |        5774     14.59%     83.34% |        6592     16.66%    100.00% (Unspecified)
system.caches.L1Cache_Controller.MP_D.WB_Data::total        39566                       (Unspecified)
system.caches.L1Cache_Controller.MI_A.Replacement |      201873     61.74%     61.74% |       40229     12.30%     74.04% |       41149     12.58%     86.62% |       43735     13.38%    100.00% (Unspecified)
system.caches.L1Cache_Controller.MI_A.Replacement::total       326986                       (Unspecified)
system.caches.L1Cache_Controller.MI_A.FwdGetM |           0      0.00%      0.00% |           1    100.00%    100.00% |           0      0.00%    100.00% |           0      0.00%    100.00% (Unspecified)
system.caches.L1Cache_Controller.MI_A.FwdGetM::total            1                       (Unspecified)
system.caches.L1Cache_Controller.MI_A.PutAck |      201795     61.93%     61.93% |       39705     12.18%     74.11% |       40652     12.48%     86.59% |       43712     13.41%    100.00% (Unspecified)
system.caches.L1Cache_Controller.MI_A.PutAck::total       325864                       (Unspecified)
system.caches.L1Cache_Controller.SI_A.Replacement |      338160     52.01%     52.01% |       92522     14.23%     66.24% |      111055     17.08%     83.32% |      108458     16.68%    100.00% (Unspecified)
system.caches.L1Cache_Controller.SI_A.Replacement::total       650195                       (Unspecified)
system.caches.L1Cache_Controller.SI_A.PutAck |      338119     52.01%     52.01% |       92477     14.23%     66.24% |      111006     17.08%     83.32% |      108443     16.68%    100.00% (Unspecified)
system.caches.L1Cache_Controller.SI_A.PutAck::total       650045                       (Unspecified)
system.caches.L1Cache_Controller.II_A.PutAck |           0      0.00%      0.00% |           1    100.00%    100.00% |           0      0.00%    100.00% |           0      0.00%    100.00% (Unspecified)
system.caches.L1Cache_Controller.II_A.PutAck::total            1                       (Unspecified)
system.caches.Directory_Controller.GetS        806561      0.00%      0.00% (Unspecified)
system.caches.Directory_Controller.GetM        326280      0.00%      0.00% (Unspecified)
system.caches.Directory_Controller.PutSNotLast        96025      0.00%      0.00% (Unspecified)
system.caches.Directory_Controller.PutSLast       179570      0.00%      0.00% (Unspecified)
system.caches.Directory_Controller.PutSLastWT       374450      0.00%      0.00% (Unspecified)
system.caches.Directory_Controller.PutMOwner        74142      0.00%      0.00% (Unspecified)
system.caches.Directory_Controller.PutMOwnerWT       251722      0.00%      0.00% (Unspecified)
system.caches.Directory_Controller.PutMNonOwner            1      0.00%      0.00% (Unspecified)
system.caches.Directory_Controller.Sync         37871      0.00%      0.00% (Unspecified)
system.caches.Directory_Controller.MemData       508475      0.00%      0.00% (Unspecified)
system.caches.Directory_Controller.LastMemAck       664043      0.00%      0.00% (Unspecified)
system.caches.Directory_Controller.I.GetS       367005      0.00%      0.00% (Unspecified)
system.caches.Directory_Controller.I.GetM       141470      0.00%      0.00% (Unspecified)
system.caches.Directory_Controller.S.GetS        96303      0.00%      0.00% (Unspecified)
system.caches.Directory_Controller.S.GetM       151989      0.00%      0.00% (Unspecified)
system.caches.Directory_Controller.S.PutSNotLast        96025      0.00%      0.00% (Unspecified)
system.caches.Directory_Controller.S.PutSLast       179570      0.00%      0.00% (Unspecified)
system.caches.Directory_Controller.S.PutSLastWT       374450      0.00%      0.00% (Unspecified)
system.caches.Directory_Controller.M.GetS         4030      0.00%      0.00% (Unspecified)
system.caches.Directory_Controller.M.GetM          333      0.00%      0.00% (Unspecified)
system.caches.Directory_Controller.M.PutMOwner        74142      0.00%      0.00% (Unspecified)
system.caches.Directory_Controller.M.PutMOwnerWT       251722      0.00%      0.00% (Unspecified)
system.caches.Directory_Controller.M.PutMNonOwner            1      0.00%      0.00% (Unspecified)
system.caches.Directory_Controller.LLCOnly.GetS       339223      0.00%      0.00% (Unspecified)
system.caches.Directory_Controller.LLCOnly.GetM        32488      0.00%      0.00% (Unspecified)
system.caches.Directory_Controller.LLCOnly.Sync        37871      0.00%      0.00% (Unspecified)
system.caches.Directory_Controller.LLCOnly_m.LastMemAck       412321      0.00%      0.00% (Unspecified)
system.caches.Directory_Controller.S_m.MemData       367005      0.00%      0.00% (Unspecified)
system.caches.Directory_Controller.M_m.MemData       141470      0.00%      0.00% (Unspecified)
system.caches.Directory_Controller.MI_m.LastMemAck       251722      0.00%      0.00% (Unspecified)
system.caches.RequestType.LD.latency_hist_seqr::bucket_size          128                       (Unspecified)
system.caches.RequestType.LD.latency_hist_seqr::max_bucket         1279                       (Unspecified)
system.caches.RequestType.LD.latency_hist_seqr::samples     12151684                       (Unspecified)
system.caches.RequestType.LD.latency_hist_seqr::mean    17.801135                       (Unspecified)
system.caches.RequestType.LD.latency_hist_seqr::gmean     1.596998                       (Unspecified)
system.caches.RequestType.LD.latency_hist_seqr::stdev    80.580480                       (Unspecified)
system.caches.RequestType.LD.latency_hist_seqr |    11606417     95.51%     95.51% |      197455      1.62%     97.14% |      190497      1.57%     98.71% |       62588      0.52%     99.22% |       51365      0.42%     99.64% |       29504      0.24%     99.89% |       10568      0.09%     99.97% |        3184      0.03%    100.00% |         106      0.00%    100.00% |           0      0.00%    100.00% (Unspecified)
system.caches.RequestType.LD.latency_hist_seqr::total     12151684                       (Unspecified)
system.caches.RequestType.LD.hit_latency_hist_seqr::bucket_size            1                       (Unspecified)
system.caches.RequestType.LD.hit_latency_hist_seqr::max_bucket            9                       (Unspecified)
system.caches.RequestType.LD.hit_latency_hist_seqr::samples     10635887                       (Unspecified)
system.caches.RequestType.LD.hit_latency_hist_seqr::mean            1                       (Unspecified)
system.caches.RequestType.LD.hit_latency_hist_seqr::gmean            1                       (Unspecified)
system.caches.RequestType.LD.hit_latency_hist_seqr |           0      0.00%      0.00% |    10635887    100.00%    100.00% |           0      0.00%    100.00% |           0      0.00%    100.00% |           0      0.00%    100.00% |           0      0.00%    100.00% |           0      0.00%    100.00% |           0      0.00%    100.00% |           0      0.00%    100.00% |           0      0.00%    100.00% (Unspecified)
system.caches.RequestType.LD.hit_latency_hist_seqr::total     10635887                       (Unspecified)
system.caches.RequestType.LD.miss_latency_hist_seqr::bucket_size          128                       (Unspecified)
system.caches.RequestType.LD.miss_latency_hist_seqr::max_bucket         1279                       (Unspecified)
system.caches.RequestType.LD.miss_latency_hist_seqr::samples      1515797                       (Unspecified)
system.caches.RequestType.LD.miss_latency_hist_seqr::mean   135.689598                       (Unspecified)
system.caches.RequestType.LD.miss_latency_hist_seqr::gmean    42.641189                       (Unspecified)
system.caches.RequestType.LD.miss_latency_hist_seqr::stdev   190.199349                       (Unspecified)
system.caches.RequestType.LD.miss_latency_hist_seqr |      970530     64.03%     64.03% |      197455     13.03%     77.05% |      190497     12.57%     89.62% |       62588      4.13%     93.75% |       51365      3.39%     97.14% |       29504      1.95%     99.09% |       10568      0.70%     99.78% |        3184      0.21%     99.99% |         106      0.01%    100.00% |           0      0.00%    100.00% (Unspecified)
system.caches.RequestType.LD.miss_latency_hist_seqr::total      1515797                       (Unspecified)
system.caches.RequestType.ST.latency_hist_seqr::bucket_size          128                       (Unspecified)
system.caches.RequestType.ST.latency_hist_seqr::max_bucket         1279                       (Unspecified)
system.caches.RequestType.ST.latency_hist_seqr::samples      4682678                       (Unspecified)
system.caches.RequestType.ST.latency_hist_seqr::mean    17.198691                       (Unspecified)
system.caches.RequestType.ST.latency_hist_seqr::gmean     1.456133                       (Unspecified)
system.caches.RequestType.ST.latency_hist_seqr::stdev    82.167179                       (Unspecified)
system.caches.RequestType.ST.latency_hist_seqr |     4480437     95.68%     95.68% |       60943      1.30%     96.98% |      104670      2.24%     99.22% |        6964      0.15%     99.37% |        5516      0.12%     99.48% |        6086      0.13%     99.61% |        8905      0.19%     99.80% |        9145      0.20%    100.00% |          12      0.00%    100.00% |           0      0.00%    100.00% (Unspecified)
system.caches.RequestType.ST.latency_hist_seqr::total      4682678                       (Unspecified)
system.caches.RequestType.ST.hit_latency_hist_seqr::bucket_size            1                       (Unspecified)
system.caches.RequestType.ST.hit_latency_hist_seqr::max_bucket            9                       (Unspecified)
system.caches.RequestType.ST.hit_latency_hist_seqr::samples      4288209                       (Unspecified)
system.caches.RequestType.ST.hit_latency_hist_seqr::mean            1                       (Unspecified)
system.caches.RequestType.ST.hit_latency_hist_seqr::gmean            1                       (Unspecified)
system.caches.RequestType.ST.hit_latency_hist_seqr |           0      0.00%      0.00% |     4288209    100.00%    100.00% |           0      0.00%    100.00% |           0      0.00%    100.00% |           0      0.00%    100.00% |           0      0.00%    100.00% |           0      0.00%    100.00% |           0      0.00%    100.00% |           0      0.00%    100.00% |           0      0.00%    100.00% (Unspecified)
system.caches.RequestType.ST.hit_latency_hist_seqr::total      4288209                       (Unspecified)
system.caches.RequestType.ST.miss_latency_hist_seqr::bucket_size          128                       (Unspecified)
system.caches.RequestType.ST.miss_latency_hist_seqr::max_bucket         1279                       (Unspecified)
system.caches.RequestType.ST.miss_latency_hist_seqr::samples       394469                       (Unspecified)
system.caches.RequestType.ST.miss_latency_hist_seqr::mean   193.292056                       (Unspecified)
system.caches.RequestType.ST.miss_latency_hist_seqr::gmean    86.563431                       (Unspecified)
system.caches.RequestType.ST.miss_latency_hist_seqr::stdev   215.137316                       (Unspecified)
system.caches.RequestType.ST.miss_latency_hist_seqr |      192228     48.73%     48.73% |       60943     15.45%     64.18% |      104670     26.53%     90.71% |        6964      1.77%     92.48% |        5516      1.40%     93.88% |        6086      1.54%     95.42% |        8905      2.26%     97.68% |        9145      2.32%    100.00% |          12      0.00%    100.00% |           0      0.00%    100.00% (Unspecified)
system.caches.RequestType.ST.miss_latency_hist_seqr::total       394469                       (Unspecified)
system.caches.RequestType.IFETCH.latency_hist_seqr::bucket_size          128                       (Unspecified)
system.caches.RequestType.IFETCH.latency_hist_seqr::max_bucket         1279                       (Unspecified)
system.caches.RequestType.IFETCH.latency_hist_seqr::samples     69254052                       (Unspecified)
system.caches.RequestType.IFETCH.latency_hist_seqr::mean     1.659434                       (Unspecified)
system.caches.RequestType.IFETCH.latency_hist_seqr::gmean     1.015599                       (Unspecified)
system.caches.RequestType.IFETCH.latency_hist_seqr::stdev    16.737768                       (Unspecified)
system.caches.RequestType.IFETCH.latency_hist_seqr |    69135422     99.83%     99.83% |       46898      0.07%     99.90% |       31623      0.05%     99.94% |       16456      0.02%     99.97% |       13221      0.02%     99.98% |        6795      0.01%     99.99% |        2323      0.00%    100.00% |        1293      0.00%    100.00% |          21      0.00%    100.00% |           0      0.00%    100.00% (Unspecified)
system.caches.RequestType.IFETCH.latency_hist_seqr::total     69254052                       (Unspecified)
system.caches.RequestType.IFETCH.hit_latency_hist_seqr::bucket_size            1                       (Unspecified)
system.caches.RequestType.IFETCH.hit_latency_hist_seqr::max_bucket            9                       (Unspecified)
system.caches.RequestType.IFETCH.hit_latency_hist_seqr::samples     68998479                       (Unspecified)
system.caches.RequestType.IFETCH.hit_latency_hist_seqr::mean            1                       (Unspecified)
system.caches.RequestType.IFETCH.hit_latency_hist_seqr::gmean            1                       (Unspecified)
system.caches.RequestType.IFETCH.hit_latency_hist_seqr |           0      0.00%      0.00% |    68998479    100.00%    100.00% |           0      0.00%    100.00% |           0      0.00%    100.00% |           0      0.00%    100.00% |           0      0.00%    100.00% |           0      0.00%    100.00% |           0      0.00%    100.00% |           0      0.00%    100.00% |           0      0.00%    100.00% (Unspecified)
system.caches.RequestType.IFETCH.hit_latency_hist_seqr::total     68998479                       (Unspecified)
system.caches.RequestType.IFETCH.miss_latency_hist_seqr::bucket_size          128                       (Unspecified)
system.caches.RequestType.IFETCH.miss_latency_hist_seqr::max_bucket         1279                       (Unspecified)
system.caches.RequestType.IFETCH.miss_latency_hist_seqr::samples       255573                       (Unspecified)
system.caches.RequestType.IFETCH.miss_latency_hist_seqr::mean   179.690402                       (Unspecified)
system.caches.RequestType.IFETCH.miss_latency_hist_seqr::gmean    66.302467                       (Unspecified)
system.caches.RequestType.IFETCH.miss_latency_hist_seqr::stdev   210.005588                       (Unspecified)
system.caches.RequestType.IFETCH.miss_latency_hist_seqr |      136943     53.58%     53.58% |       46898     18.35%     71.93% |       31623     12.37%     84.31% |       16456      6.44%     90.75% |       13221      5.17%     95.92% |        6795      2.66%     98.58% |        2323      0.91%     99.49% |        1293      0.51%     99.99% |          21      0.01%    100.00% |           0      0.00%    100.00% (Unspecified)
system.caches.RequestType.IFETCH.miss_latency_hist_seqr::total       255573                       (Unspecified)
system.caches.RequestType.RMW_Read.latency_hist_seqr::bucket_size          128                       (Unspecified)
system.caches.RequestType.RMW_Read.latency_hist_seqr::max_bucket         1279                       (Unspecified)
system.caches.RequestType.RMW_Read.latency_hist_seqr::samples       140243                       (Unspecified)
system.caches.RequestType.RMW_Read.latency_hist_seqr::mean    23.742376                       (Unspecified)
system.caches.RequestType.RMW_Read.latency_hist_seqr::gmean     2.169802                       (Unspecified)
system.caches.RequestType.RMW_Read.latency_hist_seqr::stdev    75.111101                       (Unspecified)
system.caches.RequestType.RMW_Read.latency_hist_seqr |      129533     92.36%     92.36% |        5213      3.72%     96.08% |        5234      3.73%     99.81% |         152      0.11%     99.92% |          59      0.04%     99.96% |          35      0.02%     99.99% |          16      0.01%    100.00% |           1      0.00%    100.00% |           0      0.00%    100.00% |           0      0.00%    100.00% (Unspecified)
system.caches.RequestType.RMW_Read.latency_hist_seqr::total       140243                       (Unspecified)
system.caches.RequestType.RMW_Read.hit_latency_hist_seqr::bucket_size            1                       (Unspecified)
system.caches.RequestType.RMW_Read.hit_latency_hist_seqr::max_bucket            9                       (Unspecified)
system.caches.RequestType.RMW_Read.hit_latency_hist_seqr::samples       111251                       (Unspecified)
system.caches.RequestType.RMW_Read.hit_latency_hist_seqr::mean            1                       (Unspecified)
system.caches.RequestType.RMW_Read.hit_latency_hist_seqr::gmean            1                       (Unspecified)
system.caches.RequestType.RMW_Read.hit_latency_hist_seqr |           0      0.00%      0.00% |      111251    100.00%    100.00% |           0      0.00%    100.00% |           0      0.00%    100.00% |           0      0.00%    100.00% |           0      0.00%    100.00% |           0      0.00%    100.00% |           0      0.00%    100.00% |           0      0.00%    100.00% |           0      0.00%    100.00% (Unspecified)
system.caches.RequestType.RMW_Read.hit_latency_hist_seqr::total       111251                       (Unspecified)
system.caches.RequestType.RMW_Read.miss_latency_hist_seqr::bucket_size          128                       (Unspecified)
system.caches.RequestType.RMW_Read.miss_latency_hist_seqr::max_bucket         1279                       (Unspecified)
system.caches.RequestType.RMW_Read.miss_latency_hist_seqr::samples        28992                       (Unspecified)
system.caches.RequestType.RMW_Read.miss_latency_hist_seqr::mean   111.011693                       (Unspecified)
system.caches.RequestType.RMW_Read.miss_latency_hist_seqr::gmean    42.399936                       (Unspecified)
system.caches.RequestType.RMW_Read.miss_latency_hist_seqr::stdev   133.004725                       (Unspecified)
system.caches.RequestType.RMW_Read.miss_latency_hist_seqr |       18282     63.06%     63.06% |        5213     17.98%     81.04% |        5234     18.05%     99.09% |         152      0.52%     99.62% |          59      0.20%     99.82% |          35      0.12%     99.94% |          16      0.06%    100.00% |           1      0.00%    100.00% |           0      0.00%    100.00% |           0      0.00%    100.00% (Unspecified)
system.caches.RequestType.RMW_Read.miss_latency_hist_seqr::total        28992                       (Unspecified)
system.caches.RequestType.Locked_RMW_Read.latency_hist_seqr::bucket_size          128                       (Unspecified)
system.caches.RequestType.Locked_RMW_Read.latency_hist_seqr::max_bucket         1279                       (Unspecified)
system.caches.RequestType.Locked_RMW_Read.latency_hist_seqr::samples         4868                       (Unspecified)
system.caches.RequestType.Locked_RMW_Read.latency_hist_seqr::mean    34.620994                       (Unspecified)
system.caches.RequestType.Locked_RMW_Read.latency_hist_seqr::gmean     2.979559                       (Unspecified)
system.caches.RequestType.Locked_RMW_Read.latency_hist_seqr::stdev   100.084778                       (Unspecified)
system.caches.RequestType.Locked_RMW_Read.latency_hist_seqr |        4417     90.74%     90.74% |         246      5.05%     95.79% |         104      2.14%     97.93% |          55      1.13%     99.06% |          27      0.55%     99.61% |          11      0.23%     99.84% |           5      0.10%     99.94% |           3      0.06%    100.00% |           0      0.00%    100.00% |           0      0.00%    100.00% (Unspecified)
system.caches.RequestType.Locked_RMW_Read.latency_hist_seqr::total         4868                       (Unspecified)
system.caches.RequestType.Locked_RMW_Read.hit_latency_hist_seqr::bucket_size            1                       (Unspecified)
system.caches.RequestType.Locked_RMW_Read.hit_latency_hist_seqr::max_bucket            9                       (Unspecified)
system.caches.RequestType.Locked_RMW_Read.hit_latency_hist_seqr::samples         3567                       (Unspecified)
system.caches.RequestType.Locked_RMW_Read.hit_latency_hist_seqr::mean            1                       (Unspecified)
system.caches.RequestType.Locked_RMW_Read.hit_latency_hist_seqr::gmean            1                       (Unspecified)
system.caches.RequestType.Locked_RMW_Read.hit_latency_hist_seqr |           0      0.00%      0.00% |        3567    100.00%    100.00% |           0      0.00%    100.00% |           0      0.00%    100.00% |           0      0.00%    100.00% |           0      0.00%    100.00% |           0      0.00%    100.00% |           0      0.00%    100.00% |           0      0.00%    100.00% |           0      0.00%    100.00% (Unspecified)
system.caches.RequestType.Locked_RMW_Read.hit_latency_hist_seqr::total         3567                       (Unspecified)
system.caches.RequestType.Locked_RMW_Read.miss_latency_hist_seqr::bucket_size          128                       (Unspecified)
system.caches.RequestType.Locked_RMW_Read.miss_latency_hist_seqr::max_bucket         1279                       (Unspecified)
system.caches.RequestType.Locked_RMW_Read.miss_latency_hist_seqr::samples         1301                       (Unspecified)
system.caches.RequestType.Locked_RMW_Read.miss_latency_hist_seqr::mean   126.800922                       (Unspecified)
system.caches.RequestType.Locked_RMW_Read.miss_latency_hist_seqr::gmean    59.450068                       (Unspecified)
system.caches.RequestType.Locked_RMW_Read.miss_latency_hist_seqr::stdev   160.924601                       (Unspecified)
system.caches.RequestType.Locked_RMW_Read.miss_latency_hist_seqr |         850     65.33%     65.33% |         246     18.91%     84.24% |         104      7.99%     92.24% |          55      4.23%     96.46% |          27      2.08%     98.54% |          11      0.85%     99.39% |           5      0.38%     99.77% |           3      0.23%    100.00% |           0      0.00%    100.00% |           0      0.00%    100.00% (Unspecified)
system.caches.RequestType.Locked_RMW_Read.miss_latency_hist_seqr::total         1301                       (Unspecified)
system.caches.RequestType.Locked_RMW_Write.latency_hist_seqr::bucket_size            1                       (Unspecified)
system.caches.RequestType.Locked_RMW_Write.latency_hist_seqr::max_bucket            9                       (Unspecified)
system.caches.RequestType.Locked_RMW_Write.latency_hist_seqr::samples         4868                       (Unspecified)
system.caches.RequestType.Locked_RMW_Write.latency_hist_seqr::mean            1                       (Unspecified)
system.caches.RequestType.Locked_RMW_Write.latency_hist_seqr::gmean            1                       (Unspecified)
system.caches.RequestType.Locked_RMW_Write.latency_hist_seqr |           0      0.00%      0.00% |        4868    100.00%    100.00% |           0      0.00%    100.00% |           0      0.00%    100.00% |           0      0.00%    100.00% |           0      0.00%    100.00% |           0      0.00%    100.00% |           0      0.00%    100.00% |           0      0.00%    100.00% |           0      0.00%    100.00% (Unspecified)
system.caches.RequestType.Locked_RMW_Write.latency_hist_seqr::total         4868                       (Unspecified)
system.caches.RequestType.Locked_RMW_Write.hit_latency_hist_seqr::bucket_size            1                       (Unspecified)
system.caches.RequestType.Locked_RMW_Write.hit_latency_hist_seqr::max_bucket            9                       (Unspecified)
system.caches.RequestType.Locked_RMW_Write.hit_latency_hist_seqr::samples         4868                       (Unspecified)
system.caches.RequestType.Locked_RMW_Write.hit_latency_hist_seqr::mean            1                       (Unspecified)
system.caches.RequestType.Locked_RMW_Write.hit_latency_hist_seqr::gmean            1                       (Unspecified)
system.caches.RequestType.Locked_RMW_Write.hit_latency_hist_seqr |           0      0.00%      0.00% |        4868    100.00%    100.00% |           0      0.00%    100.00% |           0      0.00%    100.00% |           0      0.00%    100.00% |           0      0.00%    100.00% |           0      0.00%    100.00% |           0      0.00%    100.00% |           0      0.00%    100.00% |           0      0.00%    100.00% (Unspecified)
system.caches.RequestType.Locked_RMW_Write.hit_latency_hist_seqr::total         4868                       (Unspecified)
system.caches.controllers0.DCache.m_demand_hits            0                       # Number of cache demand hits (Unspecified)
system.caches.controllers0.DCache.m_demand_misses            0                       # Number of cache demand misses (Unspecified)
system.caches.controllers0.DCache.m_demand_accesses            0                       # Number of cache demand accesses (Unspecified)
system.caches.controllers0.ICache.m_demand_hits            0                       # Number of cache demand hits (Unspecified)
system.caches.controllers0.ICache.m_demand_misses            0                       # Number of cache demand misses (Unspecified)
system.caches.controllers0.ICache.m_demand_accesses            0                       # Number of cache demand accesses (Unspecified)
system.caches.controllers0.forwardFromL1.m_buf_msgs     0.001275                       # Average number of messages in buffer (Unspecified)
system.caches.controllers0.forwardFromL1.m_stall_time  4999.940706                       # Average number of cycles messages are stalled in this MB (Unspecified)
system.caches.controllers0.mandatoryQueue.m_buf_msgs     0.173041                       # Average number of messages in buffer (Unspecified)
system.caches.controllers0.mandatoryQueue.m_stall_time   999.999996                       # Average number of cycles messages are stalled in this MB (Unspecified)
system.caches.controllers0.power_state.pwrStateResidencyTicks::UNDEFINED 281833471000                       # Cumulative time (in ticks) in various power states (Tick)
system.caches.controllers0.requestToL1.m_buf_msgs     0.005744                       # Average number of messages in buffer (Unspecified)
system.caches.controllers0.requestToL1.m_stall_time   999.999993                       # Average number of cycles messages are stalled in this MB (Unspecified)
system.caches.controllers0.responseFromL1.m_buf_msgs     0.004437                       # Average number of messages in buffer (Unspecified)
system.caches.controllers0.responseFromL1.m_stall_time  4999.997676                       # Average number of cycles messages are stalled in this MB (Unspecified)
system.caches.controllers0.responseToL1.m_buf_msgs     0.000075                       # Average number of messages in buffer (Unspecified)
system.caches.controllers0.responseToL1.m_stall_time   999.943839                       # Average number of cycles messages are stalled in this MB (Unspecified)
system.caches.controllers0.xyzStatsObject.power_state.pwrStateResidencyTicks::UNDEFINED 281833471000                       # Cumulative time (in ticks) in various power states (Tick)
system.caches.controllers1.DCache.m_demand_hits            0                       # Number of cache demand hits (Unspecified)
system.caches.controllers1.DCache.m_demand_misses            0                       # Number of cache demand misses (Unspecified)
system.caches.controllers1.DCache.m_demand_accesses            0                       # Number of cache demand accesses (Unspecified)
system.caches.controllers1.ICache.m_demand_hits            0                       # Number of cache demand hits (Unspecified)
system.caches.controllers1.ICache.m_demand_misses            0                       # Number of cache demand misses (Unspecified)
system.caches.controllers1.ICache.m_demand_accesses            0                       # Number of cache demand accesses (Unspecified)
system.caches.controllers1.forwardFromL1.m_buf_msgs     0.000350                       # Average number of messages in buffer (Unspecified)
system.caches.controllers1.forwardFromL1.m_stall_time  1561.130711                       # Average number of cycles messages are stalled in this MB (Unspecified)
system.caches.controllers1.mandatoryQueue.m_buf_msgs     0.040441                       # Average number of messages in buffer (Unspecified)
system.caches.controllers1.mandatoryQueue.m_stall_time   312.247941                       # Average number of cycles messages are stalled in this MB (Unspecified)
system.caches.controllers1.power_state.pwrStateResidencyTicks::UNDEFINED 281833471000                       # Cumulative time (in ticks) in various power states (Tick)
system.caches.controllers1.requestToL1.m_buf_msgs     0.001259                       # Average number of messages in buffer (Unspecified)
system.caches.controllers1.requestToL1.m_stall_time   312.247937                       # Average number of cycles messages are stalled in this MB (Unspecified)
system.caches.controllers1.responseFromL1.m_buf_msgs     0.001005                       # Average number of messages in buffer (Unspecified)
system.caches.controllers1.responseFromL1.m_stall_time  1561.239208                       # Average number of cycles messages are stalled in this MB (Unspecified)
system.caches.controllers1.responseToL1.m_buf_msgs     0.000022                       # Average number of messages in buffer (Unspecified)
system.caches.controllers1.responseToL1.m_stall_time   312.110243                       # Average number of cycles messages are stalled in this MB (Unspecified)
system.caches.controllers1.xyzStatsObject.power_state.pwrStateResidencyTicks::UNDEFINED 281833471000                       # Cumulative time (in ticks) in various power states (Tick)
system.caches.controllers2.DCache.m_demand_hits            0                       # Number of cache demand hits (Unspecified)
system.caches.controllers2.DCache.m_demand_misses            0                       # Number of cache demand misses (Unspecified)
system.caches.controllers2.DCache.m_demand_accesses            0                       # Number of cache demand accesses (Unspecified)
system.caches.controllers2.ICache.m_demand_hits            0                       # Number of cache demand hits (Unspecified)
system.caches.controllers2.ICache.m_demand_misses            0                       # Number of cache demand misses (Unspecified)
system.caches.controllers2.ICache.m_demand_accesses            0                       # Number of cache demand accesses (Unspecified)
system.caches.controllers2.forwardFromL1.m_buf_msgs     0.009509                       # Average number of messages in buffer (Unspecified)
system.caches.controllers2.forwardFromL1.m_stall_time  1560.091754                       # Average number of cycles messages are stalled in this MB (Unspecified)
system.caches.controllers2.forwardFromL1.m_stall_count            1                       # Number of times messages were stalled (Unspecified)
system.caches.controllers2.mandatoryQueue.m_buf_msgs     0.044570                       # Average number of messages in buffer (Unspecified)
system.caches.controllers2.mandatoryQueue.m_stall_time   312.034276                       # Average number of cycles messages are stalled in this MB (Unspecified)
system.caches.controllers2.power_state.pwrStateResidencyTicks::UNDEFINED 281833471000                       # Cumulative time (in ticks) in various power states (Tick)
system.caches.controllers2.requestToL1.m_buf_msgs     0.001526                       # Average number of messages in buffer (Unspecified)
system.caches.controllers2.requestToL1.m_stall_time   312.034272                       # Average number of cycles messages are stalled in this MB (Unspecified)
system.caches.controllers2.responseFromL1.m_buf_msgs     0.001198                       # Average number of messages in buffer (Unspecified)
system.caches.controllers2.responseFromL1.m_stall_time  1560.170882                       # Average number of cycles messages are stalled in this MB (Unspecified)
system.caches.controllers2.responseToL1.m_buf_msgs     0.000020                       # Average number of messages in buffer (Unspecified)
system.caches.controllers2.responseToL1.m_stall_time   312.003882                       # Average number of cycles messages are stalled in this MB (Unspecified)
system.caches.controllers2.xyzStatsObject.power_state.pwrStateResidencyTicks::UNDEFINED 281833471000                       # Cumulative time (in ticks) in various power states (Tick)
system.caches.controllers3.DCache.m_demand_hits            0                       # Number of cache demand hits (Unspecified)
system.caches.controllers3.DCache.m_demand_misses            0                       # Number of cache demand misses (Unspecified)
system.caches.controllers3.DCache.m_demand_accesses            0                       # Number of cache demand accesses (Unspecified)
system.caches.controllers3.ICache.m_demand_hits            0                       # Number of cache demand hits (Unspecified)
system.caches.controllers3.ICache.m_demand_misses            0                       # Number of cache demand misses (Unspecified)
system.caches.controllers3.ICache.m_demand_accesses            0                       # Number of cache demand accesses (Unspecified)
system.caches.controllers3.forwardFromL1.m_buf_msgs     0.006540                       # Average number of messages in buffer (Unspecified)
system.caches.controllers3.forwardFromL1.m_stall_time  1558.924770                       # Average number of cycles messages are stalled in this MB (Unspecified)
system.caches.controllers3.forwardFromL1.m_stall_count            1                       # Number of times messages were stalled (Unspecified)
system.caches.controllers3.mandatoryQueue.m_buf_msgs     0.047939                       # Average number of messages in buffer (Unspecified)
system.caches.controllers3.mandatoryQueue.m_stall_time   311.826380                       # Average number of cycles messages are stalled in this MB (Unspecified)
system.caches.controllers3.power_state.pwrStateResidencyTicks::UNDEFINED 281833471000                       # Cumulative time (in ticks) in various power states (Tick)
system.caches.controllers3.requestToL1.m_buf_msgs     0.001447                       # Average number of messages in buffer (Unspecified)
system.caches.controllers3.requestToL1.m_stall_time   311.826376                       # Average number of cycles messages are stalled in this MB (Unspecified)
system.caches.controllers3.responseFromL1.m_buf_msgs     0.001152                       # Average number of messages in buffer (Unspecified)
system.caches.controllers3.responseFromL1.m_stall_time  1559.129593                       # Average number of cycles messages are stalled in this MB (Unspecified)
system.caches.controllers3.responseToL1.m_buf_msgs     0.000023                       # Average number of messages in buffer (Unspecified)
system.caches.controllers3.responseToL1.m_stall_time   311.783709                       # Average number of cycles messages are stalled in this MB (Unspecified)
system.caches.controllers3.xyzStatsObject.power_state.pwrStateResidencyTicks::UNDEFINED 281833471000                       # Cumulative time (in ticks) in various power states (Tick)
system.caches.controllers4.cacheMemory.m_demand_hits            0                       # Number of cache demand hits (Unspecified)
system.caches.controllers4.cacheMemory.m_demand_misses            0                       # Number of cache demand misses (Unspecified)
system.caches.controllers4.cacheMemory.m_demand_accesses            0                       # Number of cache demand accesses (Unspecified)
system.caches.controllers4.forwardFromDir.m_buf_msgs     0.001971                       # Average number of messages in buffer (Unspecified)
system.caches.controllers4.forwardFromDir.m_stall_time  5206.263209                       # Average number of cycles messages are stalled in this MB (Unspecified)
system.caches.controllers4.forwardFromDir.m_stall_count         1409                       # Number of times messages were stalled (Unspecified)
system.caches.controllers4.forwardToL0.m_buf_msgs     0.001275                       # Average number of messages in buffer (Unspecified)
system.caches.controllers4.forwardToL0.m_stall_time   999.968119                       # Average number of cycles messages are stalled in this MB (Unspecified)
system.caches.controllers4.power_state.pwrStateResidencyTicks::UNDEFINED 281833471000                       # Cumulative time (in ticks) in various power states (Tick)
system.caches.controllers4.requestFromL0.m_buf_msgs     0.065034                       # Average number of messages in buffer (Unspecified)
system.caches.controllers4.requestFromL0.m_stall_time 29446.818139                       # Average number of cycles messages are stalled in this MB (Unspecified)
system.caches.controllers4.requestFromL0.m_stall_count       559694                       # Number of times messages were stalled (Unspecified)
system.caches.controllers4.requestToDir.m_buf_msgs     0.004061                       # Average number of messages in buffer (Unspecified)
system.caches.controllers4.requestToDir.m_stall_time   999.999975                       # Average number of cycles messages are stalled in this MB (Unspecified)
system.caches.controllers4.responseFromDirOrSibling.m_buf_msgs     0.002145                       # Average number of messages in buffer (Unspecified)
system.caches.controllers4.responseFromDirOrSibling.m_stall_time 12965.877474                       # Average number of cycles messages are stalled in this MB (Unspecified)
system.caches.controllers4.responseFromL0.m_buf_msgs     0.000075                       # Average number of messages in buffer (Unspecified)
system.caches.controllers4.responseFromL0.m_stall_time  4999.732899                       # Average number of cycles messages are stalled in this MB (Unspecified)
system.caches.controllers4.responseToDirOrSibling.m_buf_msgs     0.000006                       # Average number of messages in buffer (Unspecified)
system.caches.controllers4.responseToDirOrSibling.m_stall_time   312.247416                       # Average number of cycles messages are stalled in this MB (Unspecified)
system.caches.controllers4.responseToL0.m_buf_msgs     0.004437                       # Average number of messages in buffer (Unspecified)
system.caches.controllers4.responseToL0.m_stall_time   999.999549                       # Average number of cycles messages are stalled in this MB (Unspecified)
system.caches.controllers4.xyzStatsObject.power_state.pwrStateResidencyTicks::UNDEFINED 281833471000                       # Cumulative time (in ticks) in various power states (Tick)
system.caches.controllers5.cacheMemory.m_demand_hits            0                       # Number of cache demand hits (Unspecified)
system.caches.controllers5.cacheMemory.m_demand_misses            0                       # Number of cache demand misses (Unspecified)
system.caches.controllers5.cacheMemory.m_demand_accesses            0                       # Number of cache demand accesses (Unspecified)
system.caches.controllers5.forwardFromDir.m_buf_msgs     0.000519                       # Average number of messages in buffer (Unspecified)
system.caches.controllers5.forwardFromDir.m_stall_time  1729.270953                       # Average number of cycles messages are stalled in this MB (Unspecified)
system.caches.controllers5.forwardFromDir.m_stall_count         1285                       # Number of times messages were stalled (Unspecified)
system.caches.controllers5.forwardToL0.m_buf_msgs     0.000350                       # Average number of messages in buffer (Unspecified)
system.caches.controllers5.forwardToL0.m_stall_time   312.205689                       # Average number of cycles messages are stalled in this MB (Unspecified)
system.caches.controllers5.power_state.pwrStateResidencyTicks::UNDEFINED 281833471000                       # Cumulative time (in ticks) in various power states (Tick)
system.caches.controllers5.requestFromL0.m_buf_msgs     0.046786                       # Average number of messages in buffer (Unspecified)
system.caches.controllers5.requestFromL0.m_stall_time 20632.057776                       # Average number of cycles messages are stalled in this MB (Unspecified)
system.caches.controllers5.requestFromL0.m_stall_count       137638                       # Number of times messages were stalled (Unspecified)
system.caches.controllers5.requestToDir.m_buf_msgs     0.001044                       # Average number of messages in buffer (Unspecified)
system.caches.controllers5.requestToDir.m_stall_time   312.247920                       # Average number of cycles messages are stalled in this MB (Unspecified)
system.caches.controllers5.responseFromDirOrSibling.m_buf_msgs     0.000575                       # Average number of messages in buffer (Unspecified)
system.caches.controllers5.responseFromDirOrSibling.m_stall_time  4030.886771                       # Average number of cycles messages are stalled in this MB (Unspecified)
system.caches.controllers5.responseFromL0.m_buf_msgs     0.000022                       # Average number of messages in buffer (Unspecified)
system.caches.controllers5.responseFromL0.m_stall_time  1560.554740                       # Average number of cycles messages are stalled in this MB (Unspecified)
system.caches.controllers5.responseToDirOrSibling.m_buf_msgs     0.000005                       # Average number of messages in buffer (Unspecified)
system.caches.controllers5.responseToDirOrSibling.m_stall_time   312.017042                       # Average number of cycles messages are stalled in this MB (Unspecified)
system.caches.controllers5.responseToL0.m_buf_msgs     0.001005                       # Average number of messages in buffer (Unspecified)
system.caches.controllers5.responseToL0.m_stall_time   312.247856                       # Average number of cycles messages are stalled in this MB (Unspecified)
system.caches.controllers5.xyzStatsObject.power_state.pwrStateResidencyTicks::UNDEFINED 281833471000                       # Cumulative time (in ticks) in various power states (Tick)
system.caches.controllers6.cacheMemory.m_demand_hits            0                       # Number of cache demand hits (Unspecified)
system.caches.controllers6.cacheMemory.m_demand_misses            0                       # Number of cache demand misses (Unspecified)
system.caches.controllers6.cacheMemory.m_demand_accesses            0                       # Number of cache demand accesses (Unspecified)
system.caches.controllers6.forwardFromDir.m_buf_msgs     0.000576                       # Average number of messages in buffer (Unspecified)
system.caches.controllers6.forwardFromDir.m_stall_time  1638.303986                       # Average number of cycles messages are stalled in this MB (Unspecified)
system.caches.controllers6.forwardFromDir.m_stall_count          969                       # Number of times messages were stalled (Unspecified)
system.caches.controllers6.forwardToL0.m_buf_msgs     0.000414                       # Average number of messages in buffer (Unspecified)
system.caches.controllers6.forwardToL0.m_stall_time   312.003900                       # Average number of cycles messages are stalled in this MB (Unspecified)
system.caches.controllers6.power_state.pwrStateResidencyTicks::UNDEFINED 281833471000                       # Cumulative time (in ticks) in various power states (Tick)
system.caches.controllers6.requestFromL0.m_buf_msgs     0.047959                       # Average number of messages in buffer (Unspecified)
system.caches.controllers6.requestFromL0.m_stall_time 20857.484291                       # Average number of cycles messages are stalled in this MB (Unspecified)
system.caches.controllers6.requestFromL0.m_stall_count       157020                       # Number of times messages were stalled (Unspecified)
system.caches.controllers6.requestToDir.m_buf_msgs     0.001185                       # Average number of messages in buffer (Unspecified)
system.caches.controllers6.requestToDir.m_stall_time   312.034254                       # Average number of cycles messages are stalled in this MB (Unspecified)
system.caches.controllers6.responseFromDirOrSibling.m_buf_msgs     0.000647                       # Average number of messages in buffer (Unspecified)
system.caches.controllers6.responseFromDirOrSibling.m_stall_time  4036.858007                       # Average number of cycles messages are stalled in this MB (Unspecified)
system.caches.controllers6.responseFromL0.m_buf_msgs     0.000020                       # Average number of messages in buffer (Unspecified)
system.caches.controllers6.responseFromL0.m_stall_time  1560.019339                       # Average number of cycles messages are stalled in this MB (Unspecified)
system.caches.controllers6.responseToDirOrSibling.m_buf_msgs     0.000004                       # Average number of messages in buffer (Unspecified)
system.caches.controllers6.responseToDirOrSibling.m_stall_time   312.001480                       # Average number of cycles messages are stalled in this MB (Unspecified)
system.caches.controllers6.responseToL0.m_buf_msgs     0.001198                       # Average number of messages in buffer (Unspecified)
system.caches.controllers6.responseToL0.m_stall_time   312.034191                       # Average number of cycles messages are stalled in this MB (Unspecified)
system.caches.controllers6.xyzStatsObject.power_state.pwrStateResidencyTicks::UNDEFINED 281833471000                       # Cumulative time (in ticks) in various power states (Tick)
system.caches.controllers7.cacheMemory.m_demand_hits            0                       # Number of cache demand hits (Unspecified)
system.caches.controllers7.cacheMemory.m_demand_misses            0                       # Number of cache demand misses (Unspecified)
system.caches.controllers7.cacheMemory.m_demand_accesses            0                       # Number of cache demand accesses (Unspecified)
system.caches.controllers7.forwardFromDir.m_buf_msgs     0.000550                       # Average number of messages in buffer (Unspecified)
system.caches.controllers7.forwardFromDir.m_stall_time  1656.997493                       # Average number of cycles messages are stalled in this MB (Unspecified)
system.caches.controllers7.forwardFromDir.m_stall_count          246                       # Number of times messages were stalled (Unspecified)
system.caches.controllers7.forwardToL0.m_buf_msgs     0.000408                       # Average number of messages in buffer (Unspecified)
system.caches.controllers7.forwardToL0.m_stall_time   311.783727                       # Average number of cycles messages are stalled in this MB (Unspecified)
system.caches.controllers7.power_state.pwrStateResidencyTicks::UNDEFINED 281833471000                       # Cumulative time (in ticks) in various power states (Tick)
system.caches.controllers7.requestFromL0.m_buf_msgs     0.047375                       # Average number of messages in buffer (Unspecified)
system.caches.controllers7.requestFromL0.m_stall_time 20448.891679                       # Average number of cycles messages are stalled in this MB (Unspecified)
system.caches.controllers7.requestFromL0.m_stall_count       158546                       # Number of times messages were stalled (Unspecified)
system.caches.controllers7.requestToDir.m_buf_msgs     0.001192                       # Average number of messages in buffer (Unspecified)
system.caches.controllers7.requestToDir.m_stall_time   311.826359                       # Average number of cycles messages are stalled in this MB (Unspecified)
system.caches.controllers7.responseFromDirOrSibling.m_buf_msgs     0.000653                       # Average number of messages in buffer (Unspecified)
system.caches.controllers7.responseFromDirOrSibling.m_stall_time  4049.791375                       # Average number of cycles messages are stalled in this MB (Unspecified)
system.caches.controllers7.responseFromL0.m_buf_msgs     0.000023                       # Average number of messages in buffer (Unspecified)
system.caches.controllers7.responseFromL0.m_stall_time  1558.976861                       # Average number of cycles messages are stalled in this MB (Unspecified)
system.caches.controllers7.responseToDirOrSibling.m_buf_msgs     0.000001                       # Average number of messages in buffer (Unspecified)
system.caches.controllers7.responseToDirOrSibling.m_stall_time   311.773682                       # Average number of cycles messages are stalled in this MB (Unspecified)
system.caches.controllers7.responseToL0.m_buf_msgs     0.001152                       # Average number of messages in buffer (Unspecified)
system.caches.controllers7.responseToL0.m_stall_time   311.825933                       # Average number of cycles messages are stalled in this MB (Unspecified)
system.caches.controllers7.xyzStatsObject.power_state.pwrStateResidencyTicks::UNDEFINED 281833471000                       # Cumulative time (in ticks) in various power states (Tick)
system.caches.controllers8.cacheMemory.m_demand_hits            0                       # Number of cache demand hits (Unspecified)
system.caches.controllers8.cacheMemory.m_demand_misses            0                       # Number of cache demand misses (Unspecified)
system.caches.controllers8.cacheMemory.m_demand_accesses            0                       # Number of cache demand accesses (Unspecified)
system.caches.controllers8.forwardToCache.m_buf_msgs     0.004017                       # Average number of messages in buffer (Unspecified)
system.caches.controllers8.forwardToCache.m_stall_time   999.985573                       # Average number of cycles messages are stalled in this MB (Unspecified)
system.caches.controllers8.power_state.pwrStateResidencyTicks::UNDEFINED 281833471000                       # Cumulative time (in ticks) in various power states (Tick)
system.caches.controllers8.requestFromCache.m_not_avail_count       651730                       # Number of times this buffer did not have N slots available (Unspecified)
system.caches.controllers8.requestFromCache.m_buf_msgs     0.007482                       # Average number of messages in buffer (Unspecified)
system.caches.controllers8.requestFromCache.m_stall_time 111275.586664                       # Average number of cycles messages are stalled in this MB (Unspecified)
system.caches.controllers8.requestFromCache.m_occupancy     0.007482                       # Average occupancy of buffer capacity (Unspecified)
system.caches.controllers8.requestToMemory.m_buf_msgs     0.004160                       # Average number of messages in buffer (Unspecified)
system.caches.controllers8.requestToMemory.m_stall_time   999.999957                       # Average number of cycles messages are stalled in this MB (Unspecified)
system.caches.controllers8.responseFromMemory.m_buf_msgs     0.004160                       # Average number of messages in buffer (Unspecified)
system.caches.controllers8.responseFromMemory.m_stall_time   999.999599                       # Average number of cycles messages are stalled in this MB (Unspecified)
system.caches.controllers8.responseToCache.m_buf_msgs     0.036037                       # Average number of messages in buffer (Unspecified)
system.caches.controllers8.responseToCache.m_stall_time  8999.996104                       # Average number of cycles messages are stalled in this MB (Unspecified)
system.caches.controllers8.xyzCacheMemory.m_demand_hits            0                       # Number of cache demand hits (Unspecified)
system.caches.controllers8.xyzCacheMemory.m_demand_misses            0                       # Number of cache demand misses (Unspecified)
system.caches.controllers8.xyzCacheMemory.m_demand_accesses            0                       # Number of cache demand accesses (Unspecified)
system.caches.controllers8.xyzStatsObject.power_state.pwrStateResidencyTicks::UNDEFINED 281833471000                       # Cumulative time (in ticks) in various power states (Tick)
system.caches.network.msg_count.Control      11298522                       (Unspecified)
system.caches.network.msg_byte.Control       90388176                       (Unspecified)
system.caches.network.msg_count.Data          7379684                       (Unspecified)
system.caches.network.msg_byte.Data         531337248                       (Unspecified)
system.caches.network.msg_count.Response_Data      1240006                       (Unspecified)
system.caches.network.msg_byte.Response_Data     89280432                       (Unspecified)
system.caches.network.int_link_buffers102.m_buf_msgs     0.000414                       # Average number of messages in buffer (Unspecified)
system.caches.network.int_link_buffers102.m_stall_time   936.075659                       # Average number of cycles messages are stalled in this MB (Unspecified)
system.caches.network.int_link_buffers103.m_buf_msgs     0.001198                       # Average number of messages in buffer (Unspecified)
system.caches.network.int_link_buffers103.m_stall_time   936.102550                       # Average number of cycles messages are stalled in this MB (Unspecified)
system.caches.network.int_link_buffers107.m_buf_msgs     0.000001                       # Average number of messages in buffer (Unspecified)
system.caches.network.int_link_buffers107.m_stall_time   935.605874                       # Average number of cycles messages are stalled in this MB (Unspecified)
system.caches.network.int_link_buffers11.m_buf_msgs     0.001259                       # Average number of messages in buffer (Unspecified)
system.caches.network.int_link_buffers11.m_stall_time  1256.946685                       # Average number of cycles messages are stalled in this MB (Unspecified)
system.caches.network.int_link_buffers114.m_buf_msgs     0.000002                       # Average number of messages in buffer (Unspecified)
system.caches.network.int_link_buffers114.m_stall_time   936.004418                       # Average number of cycles messages are stalled in this MB (Unspecified)
system.caches.network.int_link_buffers12.m_buf_msgs     0.000022                       # Average number of messages in buffer (Unspecified)
system.caches.network.int_link_buffers12.m_stall_time   936.334304                       # Average number of cycles messages are stalled in this MB (Unspecified)
system.caches.network.int_link_buffers121.m_buf_msgs     0.000001                       # Average number of messages in buffer (Unspecified)
system.caches.network.int_link_buffers121.m_stall_time   924.666574                       # Average number of cycles messages are stalled in this MB (Unspecified)
system.caches.network.int_link_buffers126.m_buf_msgs     0.141369                       # Average number of messages in buffer (Unspecified)
system.caches.network.int_link_buffers126.m_stall_time 54675.958474                       # Average number of cycles messages are stalled in this MB (Unspecified)
system.caches.network.int_link_buffers137.m_buf_msgs     0.000408                       # Average number of messages in buffer (Unspecified)
[...]
system.caches.controllers2.xyzStatsObjectlatency::underflows            0      0.00%      0.00% # Mem access latency (Unspecified)
system.caches.controllers2.xyzStatsObjectlatency::0-49999       337748    100.00%    100.00% # Mem access latency (Unspecified)
system.caches.controllers2.xyzStatsObjectlatency::50000-99999            0      0.00%    100.00% # Mem access latency (Unspecified)
system.caches.controllers2.xyzStatsObjectlatency::100000            0      0.00%    100.00% # Mem access latency (Unspecified)
system.caches.controllers2.xyzStatsObjectlatency::overflows            0      0.00%    100.00% # Mem access latency (Unspecified)
system.caches.controllers2.xyzStatsObjectlatency::min_value           10                       # Mem access latency (Unspecified)
system.caches.controllers2.xyzStatsObjectlatency::max_value         1121                       # Mem access latency (Unspecified)
system.caches.controllers2.xyzStatsObjectlatency::total       337748                       # Mem access latency (Unspecified)
system.caches.controllers3.xyzStatsObject.total_put            0                       # Total number of put (PutM + PutS) (Unspecified)
system.caches.controllers3.xyzStatsObject.total_put_as_wt            0                       # Total number of put as write through (Unspecified)
system.caches.controllers3.xyzStatsObject.total_putm            0                       # Total number of PutM (Unspecified)
system.caches.controllers3.xyzStatsObject.total_putm_as_wt            0                       # Total number of PutM as write through (Unspecified)
system.caches.controllers3.xyzStatsObject.total_puts            0                       # Total number of PutS (Unspecified)
system.caches.controllers3.xyzStatsObject.total_puts_as_wt            0                       # Total number of PutS as write through (Unspecified)
system.caches.controllers3.xyzStatsObject.total_repl            0                       # Total Replacement (Unspecified)
system.caches.controllers3.xyzStatsObject.total_repl_llc            0                       # Total Replacement of LLC line (Unspecified)
system.caches.controllers3.xyzStatsObject.total_repl_owned            0                       # Total Replacement of owned line (Unspecified)
system.caches.controllers3.xyzStatsObject.total_repl_shared            0                       # Total Replacement of shared line (Unspecified)
system.caches.controllers3.xyzStatsObject.wt_putRatio          nan                       # WT / Put (Unspecified)
system.caches.controllers3.xyzStatsObject.wt_putmRatio          nan                       # PutM WT / PutM (Unspecified)
system.caches.controllers3.xyzStatsObject.wt_putsRatio          nan                       # PutS WT / PutS (Unspecified)
system.caches.controllers3.xyzStatsObjectlatency::samples       324586                       # Mem access latency (Unspecified)
system.caches.controllers3.xyzStatsObjectlatency::mean   166.391644                       # Mem access latency (Unspecified)
system.caches.controllers3.xyzStatsObjectlatency::stdev   228.737839                       # Mem access latency (Unspecified)
system.caches.controllers3.xyzStatsObjectlatency::underflows            0      0.00%      0.00% # Mem access latency (Unspecified)
system.caches.controllers3.xyzStatsObjectlatency::0-49999       324586    100.00%    100.00% # Mem access latency (Unspecified)
system.caches.controllers3.xyzStatsObjectlatency::50000-99999            0      0.00%    100.00% # Mem access latency (Unspecified)
system.caches.controllers3.xyzStatsObjectlatency::100000            0      0.00%    100.00% # Mem access latency (Unspecified)
system.caches.controllers3.xyzStatsObjectlatency::overflows            0      0.00%    100.00% # Mem access latency (Unspecified)
system.caches.controllers3.xyzStatsObjectlatency::min_value           10                       # Mem access latency (Unspecified)
system.caches.controllers3.xyzStatsObjectlatency::max_value         1100                       # Mem access latency (Unspecified)
system.caches.controllers3.xyzStatsObjectlatency::total       324586                       # Mem access latency (Unspecified)
system.caches.controllers4.xyzStatsObject.total_put            0                       # Total number of put (PutM + PutS) (Unspecified)
system.caches.controllers4.xyzStatsObject.total_put_as_wt            0                       # Total number of put as write through (Unspecified)
system.caches.controllers4.xyzStatsObject.total_putm            0                       # Total number of PutM (Unspecified)
system.caches.controllers4.xyzStatsObject.total_putm_as_wt            0                       # Total number of PutM as write through (Unspecified)
system.caches.controllers4.xyzStatsObject.total_puts            0                       # Total number of PutS (Unspecified)
system.caches.controllers4.xyzStatsObject.total_puts_as_wt            0                       # Total number of PutS as write through (Unspecified)
system.caches.controllers4.xyzStatsObject.total_repl            0                       # Total Replacement (Unspecified)
system.caches.controllers4.xyzStatsObject.total_repl_llc            0                       # Total Replacement of LLC line (Unspecified)
system.caches.controllers4.xyzStatsObject.total_repl_owned            0                       # Total Replacement of owned line (Unspecified)
system.caches.controllers4.xyzStatsObject.total_repl_shared            0                       # Total Replacement of shared line (Unspecified)
system.caches.controllers4.xyzStatsObject.wt_putRatio          nan                       # WT / Put (Unspecified)
system.caches.controllers4.xyzStatsObject.wt_putmRatio          nan                       # PutM WT / PutM (Unspecified)
system.caches.controllers4.xyzStatsObject.wt_putsRatio          nan                       # PutS WT / PutS (Unspecified)
system.caches.controllers4.xyzStatsObjectlatency::samples       604616                       # Mem access latency (Unspecified)
system.caches.controllers4.xyzStatsObjectlatency::mean   229.031187                       # Mem access latency (Unspecified)
system.caches.controllers4.xyzStatsObjectlatency::stdev   122.328159                       # Mem access latency (Unspecified)
system.caches.controllers4.xyzStatsObjectlatency::underflows            0      0.00%      0.00% # Mem access latency (Unspecified)
system.caches.controllers4.xyzStatsObjectlatency::0-49999       604616    100.00%    100.00% # Mem access latency (Unspecified)
system.caches.controllers4.xyzStatsObjectlatency::50000-99999            0      0.00%    100.00% # Mem access latency (Unspecified)
system.caches.controllers4.xyzStatsObjectlatency::100000            0      0.00%    100.00% # Mem access latency (Unspecified)
system.caches.controllers4.xyzStatsObjectlatency::overflows            0      0.00%    100.00% # Mem access latency (Unspecified)
system.caches.controllers4.xyzStatsObjectlatency::min_value           15                       # Mem access latency (Unspecified)
system.caches.controllers4.xyzStatsObjectlatency::max_value          732                       # Mem access latency (Unspecified)
system.caches.controllers4.xyzStatsObjectlatency::total       604616                       # Mem access latency (Unspecified)
system.caches.controllers5.xyzStatsObject.total_put            0                       # Total number of put (PutM + PutS) (Unspecified)
system.caches.controllers5.xyzStatsObject.total_put_as_wt            0                       # Total number of put as write through (Unspecified)
system.caches.controllers5.xyzStatsObject.total_putm            0                       # Total number of PutM (Unspecified)
system.caches.controllers5.xyzStatsObject.total_putm_as_wt            0                       # Total number of PutM as write through (Unspecified)
system.caches.controllers5.xyzStatsObject.total_puts            0                       # Total number of PutS (Unspecified)
system.caches.controllers5.xyzStatsObject.total_puts_as_wt            0                       # Total number of PutS as write through (Unspecified)
system.caches.controllers5.xyzStatsObject.total_repl            0                       # Total Replacement (Unspecified)
system.caches.controllers5.xyzStatsObject.total_repl_llc            0                       # Total Replacement of LLC line (Unspecified)
system.caches.controllers5.xyzStatsObject.total_repl_owned            0                       # Total Replacement of owned line (Unspecified)
system.caches.controllers5.xyzStatsObject.total_repl_shared            0                       # Total Replacement of shared line (Unspecified)
system.caches.controllers5.xyzStatsObject.wt_putRatio          nan                       # WT / Put (Unspecified)
system.caches.controllers5.xyzStatsObject.wt_putmRatio          nan                       # PutM WT / PutM (Unspecified)
system.caches.controllers5.xyzStatsObject.wt_putsRatio          nan                       # PutS WT / PutS (Unspecified)
system.caches.controllers5.xyzStatsObjectlatency::samples       162078                       # Mem access latency (Unspecified)
system.caches.controllers5.xyzStatsObjectlatency::mean   220.126809                       # Mem access latency (Unspecified)
system.caches.controllers5.xyzStatsObjectlatency::stdev   184.697991                       # Mem access latency (Unspecified)
system.caches.controllers5.xyzStatsObjectlatency::underflows            0      0.00%      0.00% # Mem access latency (Unspecified)
system.caches.controllers5.xyzStatsObjectlatency::0-49999       162078    100.00%    100.00% # Mem access latency (Unspecified)
system.caches.controllers5.xyzStatsObjectlatency::50000-99999            0      0.00%    100.00% # Mem access latency (Unspecified)
system.caches.controllers5.xyzStatsObjectlatency::100000            0      0.00%    100.00% # Mem access latency (Unspecified)
system.caches.controllers5.xyzStatsObjectlatency::overflows            0      0.00%    100.00% # Mem access latency (Unspecified)
system.caches.controllers5.xyzStatsObjectlatency::min_value           15                       # Mem access latency (Unspecified)
system.caches.controllers5.xyzStatsObjectlatency::max_value          740                       # Mem access latency (Unspecified)
system.caches.controllers5.xyzStatsObjectlatency::total       162078                       # Mem access latency (Unspecified)
system.caches.controllers6.xyzStatsObject.total_put            0                       # Total number of put (PutM + PutS) (Unspecified)
system.caches.controllers6.xyzStatsObject.total_put_as_wt            0                       # Total number of put as write through (Unspecified)
system.caches.controllers6.xyzStatsObject.total_putm            0                       # Total number of PutM (Unspecified)
system.caches.controllers6.xyzStatsObject.total_putm_as_wt            0                       # Total number of PutM as write through (Unspecified)
system.caches.controllers6.xyzStatsObject.total_puts            0                       # Total number of PutS (Unspecified)
system.caches.controllers6.xyzStatsObject.total_puts_as_wt            0                       # Total number of PutS as write through (Unspecified)
system.caches.controllers6.xyzStatsObject.total_repl            0                       # Total Replacement (Unspecified)
system.caches.controllers6.xyzStatsObject.total_repl_llc            0                       # Total Replacement of LLC line (Unspecified)
system.caches.controllers6.xyzStatsObject.total_repl_owned            0                       # Total Replacement of owned line (Unspecified)
system.caches.controllers6.xyzStatsObject.total_repl_shared            0                       # Total Replacement of shared line (Unspecified)
system.caches.controllers6.xyzStatsObject.wt_putRatio          nan                       # WT / Put (Unspecified)
system.caches.controllers6.xyzStatsObject.wt_putmRatio          nan                       # PutM WT / PutM (Unspecified)
system.caches.controllers6.xyzStatsObject.wt_putsRatio          nan                       # PutS WT / PutS (Unspecified)
system.caches.controllers6.xyzStatsObjectlatency::samples       182243                       # Mem access latency (Unspecified)
system.caches.controllers6.xyzStatsObjectlatency::mean   205.235630                       # Mem access latency (Unspecified)
system.caches.controllers6.xyzStatsObjectlatency::stdev   186.254869                       # Mem access latency (Unspecified)
system.caches.controllers6.xyzStatsObjectlatency::underflows            0      0.00%      0.00% # Mem access latency (Unspecified)
system.caches.controllers6.xyzStatsObjectlatency::0-49999       182243    100.00%    100.00% # Mem access latency (Unspecified)
system.caches.controllers6.xyzStatsObjectlatency::50000-99999            0      0.00%    100.00% # Mem access latency (Unspecified)
system.caches.controllers6.xyzStatsObjectlatency::100000            0      0.00%    100.00% # Mem access latency (Unspecified)
system.caches.controllers6.xyzStatsObjectlatency::overflows            0      0.00%    100.00% # Mem access latency (Unspecified)
system.caches.controllers6.xyzStatsObjectlatency::min_value           15                       # Mem access latency (Unspecified)
system.caches.controllers6.xyzStatsObjectlatency::max_value          766                       # Mem access latency (Unspecified)
system.caches.controllers6.xyzStatsObjectlatency::total       182243                       # Mem access latency (Unspecified)
system.caches.controllers7.xyzStatsObject.total_put            0                       # Total number of put (PutM + PutS) (Unspecified)
system.caches.controllers7.xyzStatsObject.total_put_as_wt            0                       # Total number of put as write through (Unspecified)
system.caches.controllers7.xyzStatsObject.total_putm            0                       # Total number of PutM (Unspecified)
system.caches.controllers7.xyzStatsObject.total_putm_as_wt            0                       # Total number of PutM as write through (Unspecified)
system.caches.controllers7.xyzStatsObject.total_puts            0                       # Total number of PutS (Unspecified)
system.caches.controllers7.xyzStatsObject.total_puts_as_wt            0                       # Total number of PutS as write through (Unspecified)
system.caches.controllers7.xyzStatsObject.total_repl            0                       # Total Replacement (Unspecified)
system.caches.controllers7.xyzStatsObject.total_repl_llc            0                       # Total Replacement of LLC line (Unspecified)
system.caches.controllers7.xyzStatsObject.total_repl_owned            0                       # Total Replacement of owned line (Unspecified)
system.caches.controllers7.xyzStatsObject.total_repl_shared            0                       # Total Replacement of shared line (Unspecified)
system.caches.controllers7.xyzStatsObject.wt_putRatio          nan                       # WT / Put (Unspecified)
system.caches.controllers7.xyzStatsObject.wt_putmRatio          nan                       # PutM WT / PutM (Unspecified)
system.caches.controllers7.xyzStatsObject.wt_putsRatio          nan                       # PutS WT / PutS (Unspecified)
system.caches.controllers7.xyzStatsObjectlatency::samples       183904                       # Mem access latency (Unspecified)
system.caches.controllers7.xyzStatsObjectlatency::mean   203.831885                       # Mem access latency (Unspecified)
system.caches.controllers7.xyzStatsObjectlatency::stdev   181.464123                       # Mem access latency (Unspecified)
system.caches.controllers7.xyzStatsObjectlatency::underflows            0      0.00%      0.00% # Mem access latency (Unspecified)
system.caches.controllers7.xyzStatsObjectlatency::0-49999       183904    100.00%    100.00% # Mem access latency (Unspecified)
system.caches.controllers7.xyzStatsObjectlatency::50000-99999            0      0.00%    100.00% # Mem access latency (Unspecified)
system.caches.controllers7.xyzStatsObjectlatency::100000            0      0.00%    100.00% # Mem access latency (Unspecified)
system.caches.controllers7.xyzStatsObjectlatency::overflows            0      0.00%    100.00% # Mem access latency (Unspecified)
system.caches.controllers7.xyzStatsObjectlatency::min_value           15                       # Mem access latency (Unspecified)
system.caches.controllers7.xyzStatsObjectlatency::max_value          732                       # Mem access latency (Unspecified)
system.caches.controllers7.xyzStatsObjectlatency::total       183904                       # Mem access latency (Unspecified)
system.caches.controllers8.xyzStatsObject.total_put      1013781                       # Total number of put (PutM + PutS) (Unspecified)
system.caches.controllers8.xyzStatsObject.total_put_as_wt       664043                       # Total number of put as write through (Unspecified)
system.caches.controllers8.xyzStatsObject.total_putm       325865                       # Total number of PutM (Unspecified)
system.caches.controllers8.xyzStatsObject.total_putm_as_wt       251722                       # Total number of PutM as write through (Unspecified)
system.caches.controllers8.xyzStatsObject.total_puts       687916                       # Total number of PutS (Unspecified)
system.caches.controllers8.xyzStatsObject.total_puts_as_wt       412321                       # Total number of PutS as write through (Unspecified)
system.caches.controllers8.xyzStatsObject.total_repl            0                       # Total Replacement (Unspecified)
system.caches.controllers8.xyzStatsObject.total_repl_llc            0                       # Total Replacement of LLC line (Unspecified)
system.caches.controllers8.xyzStatsObject.total_repl_owned            0                       # Total Replacement of owned line (Unspecified)
system.caches.controllers8.xyzStatsObject.total_repl_shared            0                       # Total Replacement of shared line (Unspecified)
system.caches.controllers8.xyzStatsObject.wt_putRatio     0.655016                       # WT / Put (Unspecified)
system.caches.controllers8.xyzStatsObject.wt_putmRatio     0.772473                       # PutM WT / PutM (Unspecified)
system.caches.controllers8.xyzStatsObject.wt_putsRatio     0.599377                       # PutS WT / PutS (Unspecified)
system.caches.controllers8.xyzStatsObjectlatency::samples            0                       # Mem access latency (Unspecified)
system.caches.controllers8.xyzStatsObjectlatency::mean          nan                       # Mem access latency (Unspecified)
system.caches.controllers8.xyzStatsObjectlatency::stdev          nan                       # Mem access latency (Unspecified)
system.caches.controllers8.xyzStatsObjectlatency::underflows            0                       # Mem access latency (Unspecified)
system.caches.controllers8.xyzStatsObjectlatency::0-49999            0                       # Mem access latency (Unspecified)
system.caches.controllers8.xyzStatsObjectlatency::50000-99999            0                       # Mem access latency (Unspecified)
system.caches.controllers8.xyzStatsObjectlatency::100000            0                       # Mem access latency (Unspecified)
system.caches.controllers8.xyzStatsObjectlatency::overflows            0                       # Mem access latency (Unspecified)
system.caches.controllers8.xyzStatsObjectlatency::min_value            0                       # Mem access latency (Unspecified)
system.caches.controllers8.xyzStatsObjectlatency::max_value            0                       # Mem access latency (Unspecified)
system.caches.controllers8.xyzStatsObjectlatency::total            0                       # Mem access latency (Unspecified)

---------- End Simulation Statistics   ----------
