
---------- Begin Simulation Statistics ----------
simSeconds                                   0.316916                       # Number of seconds simulated (Second)
simTicks                                 316915711000                       # Number of ticks simulated (Tick)
finalTick                                316915711000                       # Number of ticks from beginning of simulation (restored from checkpoints and never reset) (Tick)
simFreq                                  1000000000000                       # The number of ticks per simulated second ((Tick/Second))
hostSeconds                                     67.32                       # Real time elapsed on the host (Second)
hostTickRate                               4707477541                       # The number of ticks simulated per host second (ticks/s) ((Tick/Second))
hostMemory                                    4951572                       # Number of bytes of host memory used (Byte)
simInsts                                     50408414                       # Number of instructions simulated (Count)
simOps                                       83392387                       # Number of ops (including micro ops) simulated (Count)
hostInstRate                                   748759                       # Simulator instruction rate (inst/s) ((Count/Second))
hostOpRate                                    1238694                       # Simulator op (including micro ops) rate (op/s) ((Count/Second))
system.caches.m_outstandReqHistSeqr::bucket_size            1                       (Unspecified)
system.caches.m_outstandReqHistSeqr::max_bucket            9                       (Unspecified)
system.caches.m_outstandReqHistSeqr::samples     86238999                       (Unspecified)
system.caches.m_outstandReqHistSeqr::mean            1                       (Unspecified)
system.caches.m_outstandReqHistSeqr::gmean            1                       (Unspecified)
system.caches.m_outstandReqHistSeqr      |           0      0.00%      0.00% |    86238999    100.00%    100.00% |           0      0.00%    100.00% |           0      0.00%    100.00% |           0      0.00%    100.00% |           0      0.00%    100.00% |           0      0.00%    100.00% |           0      0.00%    100.00% |           0      0.00%    100.00% |           0      0.00%    100.00% (Unspecified)
system.caches.m_outstandReqHistSeqr::total     86238999                       (Unspecified)
system.caches.m_latencyHistSeqr::bucket_size          128                       (Unspecified)
system.caches.m_latencyHistSeqr::max_bucket         1279                       (Unspecified)
system.caches.m_latencyHistSeqr::samples     86238999                       (Unspecified)
system.caches.m_latencyHistSeqr::mean        6.293707                       (Unspecified)
system.caches.m_latencyHistSeqr::gmean       1.111914                       (Unspecified)
system.caches.m_latencyHistSeqr::stdev      51.836019                       (Unspecified)
system.caches.m_latencyHistSeqr          |    85202078     98.80%     98.80% |      255561      0.30%     99.09% |      345879      0.40%     99.50% |      114146      0.13%     99.63% |      123055      0.14%     99.77% |      108448      0.13%     99.90% |       63388      0.07%     99.97% |       25887      0.03%    100.00% |         557      0.00%    100.00% |           0      0.00%    100.00% (Unspecified)
system.caches.m_latencyHistSeqr::total       86238999                       (Unspecified)
system.caches.m_hitLatencyHistSeqr::bucket_size            1                       (Unspecified)
system.caches.m_hitLatencyHistSeqr::max_bucket            9                       (Unspecified)
system.caches.m_hitLatencyHistSeqr::samples     84042819                       (Unspecified)
system.caches.m_hitLatencyHistSeqr::mean            1                       (Unspecified)
system.caches.m_hitLatencyHistSeqr::gmean            1                       (Unspecified)
system.caches.m_hitLatencyHistSeqr       |           0      0.00%      0.00% |    84042819    100.00%    100.00% |           0      0.00%    100.00% |           0      0.00%    100.00% |           0      0.00%    100.00% |           0      0.00%    100.00% |           0      0.00%    100.00% |           0      0.00%    100.00% |           0      0.00%    100.00% |           0      0.00%    100.00% (Unspecified)
system.caches.m_hitLatencyHistSeqr::total     84042819                       (Unspecified)
system.caches.m_missLatencyHistSeqr::bucket_size          128                       (Unspecified)
system.caches.m_missLatencyHistSeqr::max_bucket         1279                       (Unspecified)
system.caches.m_missLatencyHistSeqr::samples      2196180                       (Unspecified)
system.caches.m_missLatencyHistSeqr::mean   208.871848                       (Unspecified)
system.caches.m_missLatencyHistSeqr::gmean    64.432880                       (Unspecified)
system.caches.m_missLatencyHistSeqr::stdev   251.795660                       (Unspecified)
system.caches.m_missLatencyHistSeqr      |     1159259     52.79%     52.79% |      255561     11.64%     64.42% |      345879     15.75%     80.17% |      114146      5.20%     85.37% |      123055      5.60%     90.97% |      108448      4.94%     95.91% |       63388      2.89%     98.80% |       25887      1.18%     99.97% |         557      0.03%    100.00% |           0      0.00%    100.00% (Unspecified)
system.caches.m_missLatencyHistSeqr::total      2196180                       (Unspecified)
system.caches.L0Cache_Controller.Load    |     7346436     60.46%     60.46% |     1457693     12.00%     72.45% |     1620577     13.34%     85.79% |     1727036     14.21%    100.00% (Unspecified)
system.caches.L0Cache_Controller.Load::total     12151742                       (Unspecified)
system.caches.L0Cache_Controller.Ifetch  |    38231018     55.20%     55.20% |     9435006     13.62%     68.83% |    10406465     15.03%     83.85% |    11182029     16.15%    100.00% (Unspecified)
system.caches.L0Cache_Controller.Ifetch::total     69254518                       (Unspecified)
system.caches.L0Cache_Controller.Store   |     3191610     66.04%     66.04% |      505003     10.45%     76.49% |      534280     11.06%     87.55% |      601846     12.45%    100.00% (Unspecified)
system.caches.L0Cache_Controller.Store::total      4832739                       (Unspecified)
system.caches.L0Cache_Controller.Replacement |     1077232     58.92%     58.92% |      223309     12.21%     71.14% |      272706     14.92%     86.06% |      254936     13.94%    100.00% (Unspecified)
system.caches.L0Cache_Controller.Replacement::total      1828183                       (Unspecified)
system.caches.L0Cache_Controller.Inv     |      359259     52.08%     52.08% |       98663     14.30%     66.38% |      116820     16.94%     83.32% |      115060     16.68%    100.00% (Unspecified)
system.caches.L0Cache_Controller.Inv::total       689802                       (Unspecified)
system.caches.L0Cache_Controller.Data    |     1136201     57.80%     57.80% |      250745     12.76%     70.56% |      292142     14.86%     85.42% |      286671     14.58%    100.00% (Unspecified)
system.caches.L0Cache_Controller.Data::total      1965759                       (Unspecified)
system.caches.L0Cache_Controller.ExData  |      114440     49.67%     49.67% |       32462     14.09%     63.75% |       45601     19.79%     83.54% |       37918     16.46%    100.00% (Unspecified)
system.caches.L0Cache_Controller.ExData::total       230421                       (Unspecified)
system.caches.L0Cache_Controller.I.Load  |      825341     54.45%     54.45% |      207323     13.68%     68.13% |      249255     16.44%     84.57% |      233907     15.43%    100.00% (Unspecified)
system.caches.L0Cache_Controller.I.Load::total      1515826                       (Unspecified)
system.caches.L0Cache_Controller.I.Ifetch |      150427     58.85%     58.85% |       30638     11.99%     70.84% |       35898     14.04%     84.88% |       38650     15.12%    100.00% (Unspecified)
system.caches.L0Cache_Controller.I.Ifetch::total       255613                       (Unspecified)
system.caches.L0Cache_Controller.I.Store |      214254     76.99%     76.99% |       17615      6.33%     83.32% |       24597      8.84%     92.16% |       21820      7.84%    100.00% (Unspecified)
system.caches.L0Cache_Controller.I.Store::total       278286                       (Unspecified)
system.caches.L0Cache_Controller.I.Inv   |      246527     52.62%     52.62% |       66454     14.18%     66.81% |       79833     17.04%     83.85% |       75677     16.15%    100.00% (Unspecified)
system.caches.L0Cache_Controller.I.Inv::total       468491                       (Unspecified)
system.caches.L0Cache_Controller.IS_D.Data |      861328     55.89%     55.89% |      205499     13.34%     69.23% |      239552     15.55%     84.77% |      234639     15.23%    100.00% (Unspecified)
system.caches.L0Cache_Controller.IS_D.Data::total      1541018                       (Unspecified)
system.caches.L0Cache_Controller.IS_D.ExData |      114440     49.67%     49.67% |       32462     14.09%     63.75% |       45601     19.79%     83.54% |       37918     16.46%    100.00% (Unspecified)
system.caches.L0Cache_Controller.IS_D.ExData::total       230421                       (Unspecified)
system.caches.L0Cache_Controller.IM_D.Inv |           0      0.00%      0.00% |           0      0.00%      0.00% |           1     50.00%     50.00% |           1     50.00%    100.00% (Unspecified)
system.caches.L0Cache_Controller.IM_D.Inv::total            2                       (Unspecified)
system.caches.L0Cache_Controller.IM_D.Data |      274873     64.72%     64.72% |       45246     10.65%     75.37% |       52590     12.38%     87.75% |       52032     12.25%    100.00% (Unspecified)
system.caches.L0Cache_Controller.IM_D.Data::total       424741                       (Unspecified)
system.caches.L0Cache_Controller.S.Load  |     3649240     66.16%     66.16% |      558132     10.12%     76.28% |      619850     11.24%     87.52% |      688248     12.48%    100.00% (Unspecified)
system.caches.L0Cache_Controller.S.Load::total      5515470                       (Unspecified)
system.caches.L0Cache_Controller.S.Ifetch |    38080591     55.19%     55.19% |     9404368     13.63%     68.82% |    10370567     15.03%     83.85% |    11143379     16.15%    100.00% (Unspecified)
system.caches.L0Cache_Controller.S.Ifetch::total     68998905                       (Unspecified)
system.caches.L0Cache_Controller.S.Store |       60619     41.39%     41.39% |       27631     18.87%     60.26% |       27993     19.11%     79.37% |       30212     20.63%    100.00% (Unspecified)
system.caches.L0Cache_Controller.S.Store::total       146455                       (Unspecified)
system.caches.L0Cache_Controller.S.Replacement |      708979     58.46%     58.46% |      151779     12.52%     70.98% |      180322     14.87%     85.85% |      171629     14.15%    100.00% (Unspecified)
system.caches.L0Cache_Controller.S.Replacement::total      1212709                       (Unspecified)
system.caches.L0Cache_Controller.S.Inv   |       91684     50.47%     50.47% |       26046     14.34%     64.80% |       31194     17.17%     81.97% |       32754     18.03%    100.00% (Unspecified)
system.caches.L0Cache_Controller.S.Inv::total       181678                       (Unspecified)
system.caches.L0Cache_Controller.M.Load  |     2871855     56.09%     56.09% |      692238     13.52%     69.61% |      751472     14.68%     84.28% |      804881     15.72%    100.00% (Unspecified)
system.caches.L0Cache_Controller.M.Load::total      5120446                       (Unspecified)
system.caches.L0Cache_Controller.M.Store |     2916737     66.17%     66.17% |      459757     10.43%     76.60% |      481690     10.93%     87.53% |      549814     12.47%    100.00% (Unspecified)
system.caches.L0Cache_Controller.M.Store::total      4407998                       (Unspecified)
system.caches.L0Cache_Controller.M.Replacement |      368253     59.83%     59.83% |       71530     11.62%     71.45% |       92384     15.01%     86.46% |       83307     13.54%    100.00% (Unspecified)
system.caches.L0Cache_Controller.M.Replacement::total       615474                       (Unspecified)
system.caches.L0Cache_Controller.M.Inv   |       21048     53.11%     53.11% |        6163     15.55%     68.66% |        5792     14.61%     83.28% |        6628     16.72%    100.00% (Unspecified)
system.caches.L0Cache_Controller.M.Inv::total        39631                       (Unspecified)
system.caches.L1Cache_Controller.Load    |      975768     55.08%     55.08% |      237961     13.43%     68.52% |      285153     16.10%     84.61% |      272557     15.39%    100.00% (Unspecified)
system.caches.L1Cache_Controller.Load::total      1771439                       (Unspecified)
system.caches.L1Cache_Controller.Store   |      274873     64.72%     64.72% |       45246     10.65%     75.37% |       52590     12.38%     87.75% |       52032     12.25%    100.00% (Unspecified)
system.caches.L1Cache_Controller.Store::total       424741                       (Unspecified)
system.caches.L1Cache_Controller.PutM    |      368253     59.83%     59.83% |       71530     11.62%     71.45% |       92384     15.01%     86.46% |       83307     13.54%    100.00% (Unspecified)
system.caches.L1Cache_Controller.PutM::total       615474                       (Unspecified)
system.caches.L1Cache_Controller.Replacement |     1119284     55.29%     55.29% |      274680     13.57%     68.86% |      313448     15.48%     84.34% |      316984     15.66%    100.00% (Unspecified)
system.caches.L1Cache_Controller.Replacement::total      2024396                       (Unspecified)
system.caches.L1Cache_Controller.FwdGetM |        2958     34.86%     34.86% |        2677     31.55%     66.41% |        2115     24.93%     91.34% |         735      8.66%    100.00% (Unspecified)
system.caches.L1Cache_Controller.FwdGetM::total         8485                       (Unspecified)
system.caches.L1Cache_Controller.Inv     |          46     37.10%     37.10% |          30     24.19%     61.29% |          34     27.42%     88.71% |          14     11.29%    100.00% (Unspecified)
system.caches.L1Cache_Controller.Inv::total          124                       (Unspecified)
system.caches.L1Cache_Controller.PutAck  |      539931     55.33%     55.33% |      132184     13.55%     68.87% |      151636     15.54%     84.41% |      152131     15.59%    100.00% (Unspecified)
system.caches.L1Cache_Controller.PutAck::total       975882                       (Unspecified)
system.caches.L1Cache_Controller.DataDirNoAcks |      603150     53.45%     53.45% |      160686     14.24%     67.69% |      181087     16.05%     83.74% |      183513     16.26%    100.00% (Unspecified)
system.caches.L1Cache_Controller.DataDirNoAcks::total      1128436                       (Unspecified)
system.caches.L1Cache_Controller.DataOwner |        1498     33.32%     33.32% |        1409     31.34%     64.66% |        1162     25.85%     90.50% |         427      9.50%    100.00% (Unspecified)
system.caches.L1Cache_Controller.DataOwner::total         4496                       (Unspecified)
system.caches.L1Cache_Controller.InvAck  |          34     27.42%     27.42% |          22     17.74%     45.16% |          20     16.13%     61.29% |          48     38.71%    100.00% (Unspecified)
system.caches.L1Cache_Controller.InvAck::total          124                       (Unspecified)
system.caches.L1Cache_Controller.WB_Data |       21048     53.11%     53.11% |        6163     15.55%     68.66% |        5792     14.61%     83.28% |        6628     16.72%    100.00% (Unspecified)
system.caches.L1Cache_Controller.WB_Data::total        39631                       (Unspecified)
system.caches.L1Cache_Controller.I.Load  |      402705     49.92%     49.92% |      122326     15.16%     65.09% |      141519     17.54%     82.63% |      140119     17.37%    100.00% (Unspecified)
system.caches.L1Cache_Controller.I.Load::total       806669                       (Unspecified)
system.caches.L1Cache_Controller.I.Store |      138952     79.71%     79.71% |       11385      6.53%     86.24% |       11397      6.54%     92.78% |       12583      7.22%    100.00% (Unspecified)
system.caches.L1Cache_Controller.I.Store::total       174317                       (Unspecified)
system.caches.L1Cache_Controller.IS_D.FwdGetM |          18     41.86%     41.86% |          16     37.21%     79.07% |           7     16.28%     95.35% |           2      4.65%    100.00% (Unspecified)
system.caches.L1Cache_Controller.IS_D.FwdGetM::total           43                       (Unspecified)
system.caches.L1Cache_Controller.IS_D.DataDirNoAcks |      401309     50.01%     50.01% |      120983     15.08%     65.08% |      140460     17.50%     82.58% |      139769     17.42%    100.00% (Unspecified)
system.caches.L1Cache_Controller.IS_D.DataDirNoAcks::total       802521                       (Unspecified)
system.caches.L1Cache_Controller.IS_D.DataOwner |        1396     33.65%     33.65% |        1343     32.38%     66.03% |        1059     25.53%     91.56% |         350      8.44%    100.00% (Unspecified)
system.caches.L1Cache_Controller.IS_D.DataOwner::total         4148                       (Unspecified)
system.caches.L1Cache_Controller.IM_AD.FwdGetM |           0      0.00%      0.00% |           1     20.00%     20.00% |           1     20.00%     40.00% |           3     60.00%    100.00% (Unspecified)
system.caches.L1Cache_Controller.IM_AD.FwdGetM::total            5                       (Unspecified)
system.caches.L1Cache_Controller.IM_AD.DataDirNoAcks |      138850     79.81%     79.81% |       11320      6.51%     86.32% |       11294      6.49%     92.81% |       12506      7.19%    100.00% (Unspecified)
system.caches.L1Cache_Controller.IM_AD.DataDirNoAcks::total       173970                       (Unspecified)
system.caches.L1Cache_Controller.IM_AD.DataOwner |         102     29.31%     29.31% |          66     18.97%     48.28% |         103     29.60%     77.87% |          77     22.13%    100.00% (Unspecified)
system.caches.L1Cache_Controller.IM_AD.DataOwner::total          348                       (Unspecified)
system.caches.L1Cache_Controller.IM_AD.InvAck |          15     40.54%     40.54% |          12     32.43%     72.97% |           4     10.81%     83.78% |           6     16.22%    100.00% (Unspecified)
system.caches.L1Cache_Controller.IM_AD.InvAck::total           37                       (Unspecified)
system.caches.L1Cache_Controller.S.Load  |      460019     62.29%     62.29% |       84516     11.44%     73.74% |       99092     13.42%     87.15% |       94870     12.85%    100.00% (Unspecified)
system.caches.L1Cache_Controller.S.Load::total       738497                       (Unspecified)
system.caches.L1Cache_Controller.S.Store |       62991     41.46%     41.46% |       28384     18.68%     60.14% |       29333     19.30%     79.44% |       31238     20.56%    100.00% (Unspecified)
system.caches.L1Cache_Controller.S.Store::total       151946                       (Unspecified)
system.caches.L1Cache_Controller.S.Replacement |      338165     52.02%     52.02% |       92471     14.23%     66.25% |      110994     17.07%     83.32% |      108417     16.68%    100.00% (Unspecified)
system.caches.L1Cache_Controller.S.Replacement::total       650047                       (Unspecified)
system.caches.L1Cache_Controller.S.Inv   |          46     37.40%     37.40% |          29     23.58%     60.98% |          34     27.64%     88.62% |          14     11.38%    100.00% (Unspecified)
system.caches.L1Cache_Controller.S.Inv::total          123                       (Unspecified)
system.caches.L1Cache_Controller.SM_AD.Inv |           0      0.00%      0.00% |           1    100.00%    100.00% |           0      0.00%    100.00% |           0      0.00%    100.00% (Unspecified)
system.caches.L1Cache_Controller.SM_AD.Inv::total            1                       (Unspecified)
system.caches.L1Cache_Controller.SM_AD.DataDirNoAcks |       62991     41.46%     41.46% |       28383     18.68%     60.14% |       29333     19.31%     79.44% |       31238     20.56%    100.00% (Unspecified)
system.caches.L1Cache_Controller.SM_AD.DataDirNoAcks::total       151945                       (Unspecified)
system.caches.L1Cache_Controller.SM_AD.InvAck |          19     21.84%     21.84% |          10     11.49%     33.33% |          16     18.39%     51.72% |          42     48.28%    100.00% (Unspecified)
system.caches.L1Cache_Controller.SM_AD.InvAck::total           87                       (Unspecified)
system.caches.L1Cache_Controller.M.Load  |      113044     49.96%     49.96% |       31119     13.75%     63.71% |       44542     19.69%     83.40% |       37568     16.60%    100.00% (Unspecified)
system.caches.L1Cache_Controller.M.Load::total       226273                       (Unspecified)
system.caches.L1Cache_Controller.M.Store |       72930     74.06%     74.06% |        5477      5.56%     79.62% |       11860     12.04%     91.66% |        8211      8.34%    100.00% (Unspecified)
system.caches.L1Cache_Controller.M.Store::total        98478                       (Unspecified)
system.caches.L1Cache_Controller.M.Replacement |      201766     61.92%     61.92% |       39713     12.19%     74.11% |       40642     12.47%     86.58% |       43714     13.42%    100.00% (Unspecified)
system.caches.L1Cache_Controller.M.Replacement::total       325835                       (Unspecified)
system.caches.L1Cache_Controller.M.FwdGetM |        1552     34.54%     34.54% |        1377     30.65%     65.19% |        1127     25.08%     90.27% |         437      9.73%    100.00% (Unspecified)
system.caches.L1Cache_Controller.M.FwdGetM::total         4493                       (Unspecified)
system.caches.L1Cache_Controller.M_P.PutM |      368253     59.83%     59.83% |       71530     11.62%     71.45% |       92384     15.01%     86.46% |       83307     13.54%    100.00% (Unspecified)
system.caches.L1Cache_Controller.M_P.PutM::total       615474                       (Unspecified)
system.caches.L1Cache_Controller.M_P.Replacement |       19663     55.08%     55.08% |        4886     13.69%     68.76% |        4812     13.48%     82.24% |        6339     17.76%    100.00% (Unspecified)
system.caches.L1Cache_Controller.M_P.Replacement::total        35700                       (Unspecified)
system.caches.L1Cache_Controller.M_P.FwdGetM |        1385     35.24%     35.24% |        1277     32.49%     67.74% |         979     24.91%     92.65% |         289      7.35%    100.00% (Unspecified)
system.caches.L1Cache_Controller.M_P.FwdGetM::total         3930                       (Unspecified)
system.caches.L1Cache_Controller.M_P.WB_Data |           0      0.00%      0.00% |           0      0.00%      0.00% |           1    100.00%    100.00% |           0      0.00%    100.00% (Unspecified)
system.caches.L1Cache_Controller.M_P.WB_Data::total            1                       (Unspecified)
system.caches.L1Cache_Controller.MP_D.Replacement |       19663     55.08%     55.08% |        4887     13.69%     68.76% |        4813     13.48%     82.24% |        6339     17.76%    100.00% (Unspecified)
system.caches.L1Cache_Controller.MP_D.Replacement::total        35702                       (Unspecified)
system.caches.L1Cache_Controller.MP_D.FwdGetM |           2     18.18%     18.18% |           5     45.45%     63.64% |           1      9.09%     72.73% |           3     27.27%    100.00% (Unspecified)
system.caches.L1Cache_Controller.MP_D.FwdGetM::total           11                       (Unspecified)
system.caches.L1Cache_Controller.MP_D.WB_Data |       21048     53.11%     53.11% |        6163     15.55%     68.66% |        5791     14.61%     83.28% |        6628     16.72%    100.00% (Unspecified)
system.caches.L1Cache_Controller.MP_D.WB_Data::total        39630                       (Unspecified)
system.caches.L1Cache_Controller.MI_A.Replacement |      201831     61.74%     61.74% |       40213     12.30%     74.04% |       41141     12.58%     86.62% |       43736     13.38%    100.00% (Unspecified)
system.caches.L1Cache_Controller.MI_A.Replacement::total       326921                       (Unspecified)
system.caches.L1Cache_Controller.MI_A.FwdGetM |           1     33.33%     33.33% |           1     33.33%     66.67% |           0      0.00%     66.67% |           1     33.33%    100.00% (Unspecified)
system.caches.L1Cache_Controller.MI_A.FwdGetM::total            3                       (Unspecified)
system.caches.L1Cache_Controller.MI_A.PutAck |      201765     61.92%     61.92% |       39712     12.19%     74.11% |       40642     12.47%     86.58% |       43713     13.42%    100.00% (Unspecified)
system.caches.L1Cache_Controller.MI_A.PutAck::total       325832                       (Unspecified)
system.caches.L1Cache_Controller.SI_A.Replacement |      338196     52.01%     52.01% |       92510     14.23%     66.24% |      111046     17.08%     83.32% |      108439     16.68%    100.00% (Unspecified)
system.caches.L1Cache_Controller.SI_A.Replacement::total       650191                       (Unspecified)
system.caches.L1Cache_Controller.SI_A.PutAck |      338165     52.02%     52.02% |       92471     14.23%     66.25% |      110994     17.07%     83.32% |      108417     16.68%    100.00% (Unspecified)
system.caches.L1Cache_Controller.SI_A.PutAck::total       650047                       (Unspecified)
system.caches.L1Cache_Controller.II_A.PutAck |           1     33.33%     33.33% |           1     33.33%     66.67% |           0      0.00%     66.67% |           1     33.33%    100.00% (Unspecified)
system.caches.L1Cache_Controller.II_A.PutAck::total            3                       (Unspecified)
system.caches.Directory_Controller.GetS        806669      0.00%      0.00% (Unspecified)
system.caches.Directory_Controller.GetM        326263      0.00%      0.00% (Unspecified)
system.caches.Directory_Controller.PutSNotLast        97623      0.00%      0.00% (Unspecified)
system.caches.Directory_Controller.PutSLast        71310      0.00%      0.00% (Unspecified)
system.caches.Directory_Controller.PutSLastWT       481114      0.00%      0.00% (Unspecified)
system.caches.Directory_Controller.PutMOwner        32186      0.00%      0.00% (Unspecified)
system.caches.Directory_Controller.PutMOwnerWT       293646      0.00%      0.00% (Unspecified)
system.caches.Directory_Controller.PutMNonOwner            3      0.00%      0.00% (Unspecified)
system.caches.Directory_Controller.Sync         71416      0.00%      0.00% (Unspecified)
system.caches.Directory_Controller.MemData       675913      0.00%      0.00% (Unspecified)
system.caches.Directory_Controller.LastMemAck       846176      0.00%      0.00% (Unspecified)
system.caches.Directory_Controller.I.GetS       529209      0.00%      0.00% (Unspecified)
system.caches.Directory_Controller.I.GetM       146704      0.00%      0.00% (Unspecified)
system.caches.Directory_Controller.S.GetS        97908      0.00%      0.00% (Unspecified)
system.caches.Directory_Controller.S.GetM       151972      0.00%      0.00% (Unspecified)
system.caches.Directory_Controller.S.PutSNotLast        97623      0.00%      0.00% (Unspecified)
system.caches.Directory_Controller.S.PutSLast        71310      0.00%      0.00% (Unspecified)
system.caches.Directory_Controller.S.PutSLastWT       481114      0.00%      0.00% (Unspecified)
system.caches.Directory_Controller.M.GetS         4148      0.00%      0.00% (Unspecified)
system.caches.Directory_Controller.M.GetM          348      0.00%      0.00% (Unspecified)
system.caches.Directory_Controller.M.PutMOwner        32186      0.00%      0.00% (Unspecified)
system.caches.Directory_Controller.M.PutMOwnerWT       293646      0.00%      0.00% (Unspecified)
system.caches.Directory_Controller.M.PutMNonOwner            3      0.00%      0.00% (Unspecified)
system.caches.Directory_Controller.LLCOnly.GetS       175404      0.00%      0.00% (Unspecified)
system.caches.Directory_Controller.LLCOnly.GetM        27239      0.00%      0.00% (Unspecified)
system.caches.Directory_Controller.LLCOnly.Sync        71416      0.00%      0.00% (Unspecified)
system.caches.Directory_Controller.LLCOnly_m.LastMemAck       552530      0.00%      0.00% (Unspecified)
system.caches.Directory_Controller.S_m.MemData       529209      0.00%      0.00% (Unspecified)
system.caches.Directory_Controller.M_m.MemData       146704      0.00%      0.00% (Unspecified)
system.caches.Directory_Controller.MI_m.LastMemAck       293646      0.00%      0.00% (Unspecified)
system.caches.RequestType.LD.latency_hist_seqr::bucket_size          128                       (Unspecified)
system.caches.RequestType.LD.latency_hist_seqr::max_bucket         1279                       (Unspecified)
system.caches.RequestType.LD.latency_hist_seqr::samples     12151742                       (Unspecified)
system.caches.RequestType.LD.latency_hist_seqr::mean    25.189498                       (Unspecified)
system.caches.RequestType.LD.latency_hist_seqr::gmean     1.640794                       (Unspecified)
system.caches.RequestType.LD.latency_hist_seqr::stdev   110.363918                       (Unspecified)
system.caches.RequestType.LD.latency_hist_seqr |    11515147     94.76%     94.76% |      142860      1.18%     95.94% |      188729      1.55%     97.49% |       78682      0.65%     98.14% |       91264      0.75%     98.89% |       79562      0.65%     99.54% |       42298      0.35%     99.89% |       12742      0.10%    100.00% |         458      0.00%    100.00% |           0      0.00%    100.00% (Unspecified)
system.caches.RequestType.LD.latency_hist_seqr::total     12151742                       (Unspecified)
system.caches.RequestType.LD.hit_latency_hist_seqr::bucket_size            1                       (Unspecified)
system.caches.RequestType.LD.hit_latency_hist_seqr::max_bucket            9                       (Unspecified)
system.caches.RequestType.LD.hit_latency_hist_seqr::samples     10635916                       (Unspecified)
system.caches.RequestType.LD.hit_latency_hist_seqr::mean            1                       (Unspecified)
system.caches.RequestType.LD.hit_latency_hist_seqr::gmean            1                       (Unspecified)
system.caches.RequestType.LD.hit_latency_hist_seqr |           0      0.00%      0.00% |    10635916    100.00%    100.00% |           0      0.00%    100.00% |           0      0.00%    100.00% |           0      0.00%    100.00% |           0      0.00%    100.00% |           0      0.00%    100.00% |           0      0.00%    100.00% |           0      0.00%    100.00% |           0      0.00%    100.00% (Unspecified)
system.caches.RequestType.LD.hit_latency_hist_seqr::total     10635916                       (Unspecified)
system.caches.RequestType.LD.miss_latency_hist_seqr::bucket_size          128                       (Unspecified)
system.caches.RequestType.LD.miss_latency_hist_seqr::max_bucket         1279                       (Unspecified)
system.caches.RequestType.LD.miss_latency_hist_seqr::samples      1515826                       (Unspecified)
system.caches.RequestType.LD.miss_latency_hist_seqr::mean   194.917069                       (Unspecified)
system.caches.RequestType.LD.miss_latency_hist_seqr::gmean    52.966231                       (Unspecified)
system.caches.RequestType.LD.miss_latency_hist_seqr::stdev   254.421847                       (Unspecified)
system.caches.RequestType.LD.miss_latency_hist_seqr |      879231     58.00%     58.00% |      142860      9.42%     67.43% |      188729     12.45%     79.88% |       78682      5.19%     85.07% |       91264      6.02%     91.09% |       79562      5.25%     96.34% |       42298      2.79%     99.13% |       12742      0.84%     99.97% |         458      0.03%    100.00% |           0      0.00%    100.00% (Unspecified)
system.caches.RequestType.LD.miss_latency_hist_seqr::total      1515826                       (Unspecified)
system.caches.RequestType.ST.latency_hist_seqr::bucket_size          128                       (Unspecified)
system.caches.RequestType.ST.latency_hist_seqr::max_bucket         1279                       (Unspecified)
system.caches.RequestType.ST.latency_hist_seqr::samples      4682718                       (Unspecified)
system.caches.RequestType.ST.latency_hist_seqr::mean    19.761699                       (Unspecified)
system.caches.RequestType.ST.latency_hist_seqr::gmean     1.481744                       (Unspecified)
system.caches.RequestType.ST.latency_hist_seqr::stdev    89.347671                       (Unspecified)
system.caches.RequestType.ST.latency_hist_seqr |     4446614     94.96%     94.96% |       69010      1.47%     96.43% |      118890      2.54%     98.97% |       12632      0.27%     99.24% |        6519      0.14%     99.38% |        8390      0.18%     99.56% |       10786      0.23%     99.79% |        9841      0.21%    100.00% |          36      0.00%    100.00% |           0      0.00%    100.00% (Unspecified)
system.caches.RequestType.ST.latency_hist_seqr::total      4682718                       (Unspecified)
system.caches.RequestType.ST.hit_latency_hist_seqr::bucket_size            1                       (Unspecified)
system.caches.RequestType.ST.hit_latency_hist_seqr::max_bucket            9                       (Unspecified)
system.caches.RequestType.ST.hit_latency_hist_seqr::samples      4288274                       (Unspecified)
system.caches.RequestType.ST.hit_latency_hist_seqr::mean            1                       (Unspecified)
system.caches.RequestType.ST.hit_latency_hist_seqr::gmean            1                       (Unspecified)
system.caches.RequestType.ST.hit_latency_hist_seqr |           0      0.00%      0.00% |     4288274    100.00%    100.00% |           0      0.00%    100.00% |           0      0.00%    100.00% |           0      0.00%    100.00% |           0      0.00%    100.00% |           0      0.00%    100.00% |           0      0.00%    100.00% |           0      0.00%    100.00% |           0      0.00%    100.00% (Unspecified)
system.caches.RequestType.ST.hit_latency_hist_seqr::total      4288274                       (Unspecified)
system.caches.RequestType.ST.miss_latency_hist_seqr::bucket_size          128                       (Unspecified)
system.caches.RequestType.ST.miss_latency_hist_seqr::max_bucket         1279                       (Unspecified)
system.caches.RequestType.ST.miss_latency_hist_seqr::samples       394444                       (Unspecified)
system.caches.RequestType.ST.miss_latency_hist_seqr::mean   223.733126                       (Unspecified)
system.caches.RequestType.ST.miss_latency_hist_seqr::gmean   106.503977                       (Unspecified)
system.caches.RequestType.ST.miss_latency_hist_seqr::stdev   222.127689                       (Unspecified)
system.caches.RequestType.ST.miss_latency_hist_seqr |      158340     40.14%     40.14% |       69010     17.50%     57.64% |      118890     30.14%     87.78% |       12632      3.20%     90.98% |        6519      1.65%     92.63% |        8390      2.13%     94.76% |       10786      2.73%     97.50% |        9841      2.49%     99.99% |          36      0.01%    100.00% |           0      0.00%    100.00% (Unspecified)
system.caches.RequestType.ST.miss_latency_hist_seqr::total       394444                       (Unspecified)
system.caches.RequestType.IFETCH.latency_hist_seqr::bucket_size          128                       (Unspecified)
system.caches.RequestType.IFETCH.latency_hist_seqr::max_bucket         1279                       (Unspecified)
system.caches.RequestType.IFETCH.latency_hist_seqr::samples     69254518                       (Unspecified)
system.caches.RequestType.IFETCH.latency_hist_seqr::mean     2.024865                       (Unspecified)
system.caches.RequestType.IFETCH.latency_hist_seqr::gmean     1.017088                       (Unspecified)
system.caches.RequestType.IFETCH.latency_hist_seqr::stdev    23.658800                       (Unspecified)
system.caches.RequestType.IFETCH.latency_hist_seqr |    69102353     99.78%     99.78% |       38041      0.05%     99.84% |       32669      0.05%     99.88% |       22484      0.03%     99.91% |       25055      0.04%     99.95% |       20352      0.03%     99.98% |       10230      0.01%    100.00% |        3273      0.00%    100.00% |          61      0.00%    100.00% |           0      0.00%    100.00% (Unspecified)
system.caches.RequestType.IFETCH.latency_hist_seqr::total     69254518                       (Unspecified)
system.caches.RequestType.IFETCH.hit_latency_hist_seqr::bucket_size            1                       (Unspecified)
system.caches.RequestType.IFETCH.hit_latency_hist_seqr::max_bucket            9                       (Unspecified)
system.caches.RequestType.IFETCH.hit_latency_hist_seqr::samples     68998905                       (Unspecified)
system.caches.RequestType.IFETCH.hit_latency_hist_seqr::mean            1                       (Unspecified)
system.caches.RequestType.IFETCH.hit_latency_hist_seqr::gmean            1                       (Unspecified)
system.caches.RequestType.IFETCH.hit_latency_hist_seqr |           0      0.00%      0.00% |    68998905    100.00%    100.00% |           0      0.00%    100.00% |           0      0.00%    100.00% |           0      0.00%    100.00% |           0      0.00%    100.00% |           0      0.00%    100.00% |           0      0.00%    100.00% |           0      0.00%    100.00% |           0      0.00%    100.00% (Unspecified)
system.caches.RequestType.IFETCH.hit_latency_hist_seqr::total     68998905                       (Unspecified)
system.caches.RequestType.IFETCH.miss_latency_hist_seqr::bucket_size          128                       (Unspecified)
system.caches.RequestType.IFETCH.miss_latency_hist_seqr::max_bucket         1279                       (Unspecified)
system.caches.RequestType.IFETCH.miss_latency_hist_seqr::samples       255613                       (Unspecified)
system.caches.RequestType.IFETCH.miss_latency_hist_seqr::mean   278.671832                       (Unspecified)
system.caches.RequestType.IFETCH.miss_latency_hist_seqr::gmean    98.563368                       (Unspecified)
system.caches.RequestType.IFETCH.miss_latency_hist_seqr::stdev   273.561832                       (Unspecified)
system.caches.RequestType.IFETCH.miss_latency_hist_seqr |      103448     40.47%     40.47% |       38041     14.88%     55.35% |       32669     12.78%     68.13% |       22484      8.80%     76.93% |       25055      9.80%     86.73% |       20352      7.96%     94.69% |       10230      4.00%     98.70% |        3273      1.28%     99.98% |          61      0.02%    100.00% |           0      0.00%    100.00% (Unspecified)
system.caches.RequestType.IFETCH.miss_latency_hist_seqr::total       255613                       (Unspecified)
system.caches.RequestType.RMW_Read.latency_hist_seqr::bucket_size          128                       (Unspecified)
system.caches.RequestType.RMW_Read.latency_hist_seqr::max_bucket         1279                       (Unspecified)
system.caches.RequestType.RMW_Read.latency_hist_seqr::samples       140243                       (Unspecified)
system.caches.RequestType.RMW_Read.latency_hist_seqr::mean    26.072781                       (Unspecified)
system.caches.RequestType.RMW_Read.latency_hist_seqr::gmean     2.200034                       (Unspecified)
system.caches.RequestType.RMW_Read.latency_hist_seqr::stdev    83.236775                       (Unspecified)
system.caches.RequestType.RMW_Read.latency_hist_seqr |      128807     91.85%     91.85% |        5379      3.84%     95.68% |        5404      3.85%     99.53% |         263      0.19%     99.72% |         181      0.13%     99.85% |         127      0.09%     99.94% |          57      0.04%     99.98% |          24      0.02%    100.00% |           1      0.00%    100.00% |           0      0.00%    100.00% (Unspecified)
system.caches.RequestType.RMW_Read.latency_hist_seqr::total       140243                       (Unspecified)
system.caches.RequestType.RMW_Read.hit_latency_hist_seqr::bucket_size            1                       (Unspecified)
system.caches.RequestType.RMW_Read.hit_latency_hist_seqr::max_bucket            9                       (Unspecified)
system.caches.RequestType.RMW_Read.hit_latency_hist_seqr::samples       111255                       (Unspecified)
system.caches.RequestType.RMW_Read.hit_latency_hist_seqr::mean            1                       (Unspecified)
system.caches.RequestType.RMW_Read.hit_latency_hist_seqr::gmean            1                       (Unspecified)
system.caches.RequestType.RMW_Read.hit_latency_hist_seqr |           0      0.00%      0.00% |      111255    100.00%    100.00% |           0      0.00%    100.00% |           0      0.00%    100.00% |           0      0.00%    100.00% |           0      0.00%    100.00% |           0      0.00%    100.00% |           0      0.00%    100.00% |           0      0.00%    100.00% |           0      0.00%    100.00% (Unspecified)
system.caches.RequestType.RMW_Read.hit_latency_hist_seqr::total       111255                       (Unspecified)
system.caches.RequestType.RMW_Read.miss_latency_hist_seqr::bucket_size          128                       (Unspecified)
system.caches.RequestType.RMW_Read.miss_latency_hist_seqr::max_bucket         1279                       (Unspecified)
system.caches.RequestType.RMW_Read.miss_latency_hist_seqr::samples        28988                       (Unspecified)
system.caches.RequestType.RMW_Read.miss_latency_hist_seqr::mean   122.301297                       (Unspecified)
system.caches.RequestType.RMW_Read.miss_latency_hist_seqr::gmean    45.358854                       (Unspecified)
system.caches.RequestType.RMW_Read.miss_latency_hist_seqr::stdev   147.807489                       (Unspecified)
system.caches.RequestType.RMW_Read.miss_latency_hist_seqr |       17552     60.55%     60.55% |        5379     18.56%     79.11% |        5404     18.64%     97.75% |         263      0.91%     98.65% |         181      0.62%     99.28% |         127      0.44%     99.72% |          57      0.20%     99.91% |          24      0.08%    100.00% |           1      0.00%    100.00% |           0      0.00%    100.00% (Unspecified)
system.caches.RequestType.RMW_Read.miss_latency_hist_seqr::total        28988                       (Unspecified)
system.caches.RequestType.Locked_RMW_Read.latency_hist_seqr::bucket_size          128                       (Unspecified)
system.caches.RequestType.Locked_RMW_Read.latency_hist_seqr::max_bucket         1279                       (Unspecified)
system.caches.RequestType.Locked_RMW_Read.latency_hist_seqr::samples         4889                       (Unspecified)
system.caches.RequestType.Locked_RMW_Read.latency_hist_seqr::mean    48.229290                       (Unspecified)
system.caches.RequestType.Locked_RMW_Read.latency_hist_seqr::gmean     3.273629                       (Unspecified)
system.caches.RequestType.Locked_RMW_Read.latency_hist_seqr::stdev   127.318072                       (Unspecified)
system.caches.RequestType.Locked_RMW_Read.latency_hist_seqr |        4268     87.30%     87.30% |         271      5.54%     92.84% |         187      3.82%     96.67% |          85      1.74%     98.40% |          36      0.74%     99.14% |          17      0.35%     99.49% |          17      0.35%     99.84% |           7      0.14%     99.98% |           1      0.02%    100.00% |           0      0.00%    100.00% (Unspecified)
system.caches.RequestType.Locked_RMW_Read.latency_hist_seqr::total         4889                       (Unspecified)
system.caches.RequestType.Locked_RMW_Read.hit_latency_hist_seqr::bucket_size            1                       (Unspecified)
system.caches.RequestType.Locked_RMW_Read.hit_latency_hist_seqr::max_bucket            9                       (Unspecified)
system.caches.RequestType.Locked_RMW_Read.hit_latency_hist_seqr::samples         3580                       (Unspecified)
system.caches.RequestType.Locked_RMW_Read.hit_latency_hist_seqr::mean            1                       (Unspecified)
system.caches.RequestType.Locked_RMW_Read.hit_latency_hist_seqr::gmean            1                       (Unspecified)
system.caches.RequestType.Locked_RMW_Read.hit_latency_hist_seqr |           0      0.00%      0.00% |        3580    100.00%    100.00% |           0      0.00%    100.00% |           0      0.00%    100.00% |           0      0.00%    100.00% |           0      0.00%    100.00% |           0      0.00%    100.00% |           0      0.00%    100.00% |           0      0.00%    100.00% |           0      0.00%    100.00% (Unspecified)
system.caches.RequestType.Locked_RMW_Read.hit_latency_hist_seqr::total         3580                       (Unspecified)
system.caches.RequestType.Locked_RMW_Read.miss_latency_hist_seqr::bucket_size          128                       (Unspecified)
system.caches.RequestType.Locked_RMW_Read.miss_latency_hist_seqr::max_bucket         1279                       (Unspecified)
system.caches.RequestType.Locked_RMW_Read.miss_latency_hist_seqr::samples         1309                       (Unspecified)
system.caches.RequestType.Locked_RMW_Read.miss_latency_hist_seqr::mean   177.397250                       (Unspecified)
system.caches.RequestType.Locked_RMW_Read.miss_latency_hist_seqr::gmean    83.866769                       (Unspecified)
system.caches.RequestType.Locked_RMW_Read.miss_latency_hist_seqr::stdev   194.355658                       (Unspecified)
system.caches.RequestType.Locked_RMW_Read.miss_latency_hist_seqr |         688     52.56%     52.56% |         271     20.70%     73.26% |         187     14.29%     87.55% |          85      6.49%     94.04% |          36      2.75%     96.79% |          17      1.30%     98.09% |          17      1.30%     99.39% |           7      0.53%     99.92% |           1      0.08%    100.00% |           0      0.00%    100.00% (Unspecified)
system.caches.RequestType.Locked_RMW_Read.miss_latency_hist_seqr::total         1309                       (Unspecified)
system.caches.RequestType.Locked_RMW_Write.latency_hist_seqr::bucket_size            1                       (Unspecified)
system.caches.RequestType.Locked_RMW_Write.latency_hist_seqr::max_bucket            9                       (Unspecified)
system.caches.RequestType.Locked_RMW_Write.latency_hist_seqr::samples         4889                       (Unspecified)
system.caches.RequestType.Locked_RMW_Write.latency_hist_seqr::mean            1                       (Unspecified)
system.caches.RequestType.Locked_RMW_Write.latency_hist_seqr::gmean            1                       (Unspecified)
system.caches.RequestType.Locked_RMW_Write.latency_hist_seqr |           0      0.00%      0.00% |        4889    100.00%    100.00% |           0      0.00%    100.00% |           0      0.00%    100.00% |           0      0.00%    100.00% |           0      0.00%    100.00% |           0      0.00%    100.00% |           0      0.00%    100.00% |           0      0.00%    100.00% |           0      0.00%    100.00% (Unspecified)
system.caches.RequestType.Locked_RMW_Write.latency_hist_seqr::total         4889                       (Unspecified)
system.caches.RequestType.Locked_RMW_Write.hit_latency_hist_seqr::bucket_size            1                       (Unspecified)
system.caches.RequestType.Locked_RMW_Write.hit_latency_hist_seqr::max_bucket            9                       (Unspecified)
system.caches.RequestType.Locked_RMW_Write.hit_latency_hist_seqr::samples         4889                       (Unspecified)
system.caches.RequestType.Locked_RMW_Write.hit_latency_hist_seqr::mean            1                       (Unspecified)
system.caches.RequestType.Locked_RMW_Write.hit_latency_hist_seqr::gmean            1                       (Unspecified)
system.caches.RequestType.Locked_RMW_Write.hit_latency_hist_seqr |           0      0.00%      0.00% |        4889    100.00%    100.00% |           0      0.00%    100.00% |           0      0.00%    100.00% |           0      0.00%    100.00% |           0      0.00%    100.00% |           0      0.00%    100.00% |           0      0.00%    100.00% |           0      0.00%    100.00% |           0      0.00%    100.00% (Unspecified)
system.caches.RequestType.Locked_RMW_Write.hit_latency_hist_seqr::total         4889                       (Unspecified)
system.caches.controllers0.DCache.m_demand_hits            0                       # Number of cache demand hits (Unspecified)
system.caches.controllers0.DCache.m_demand_misses            0                       # Number of cache demand misses (Unspecified)
system.caches.controllers0.DCache.m_demand_accesses            0                       # Number of cache demand accesses (Unspecified)
system.caches.controllers0.ICache.m_demand_hits            0                       # Number of cache demand hits (Unspecified)
system.caches.controllers0.ICache.m_demand_misses            0                       # Number of cache demand misses (Unspecified)
system.caches.controllers0.ICache.m_demand_accesses            0                       # Number of cache demand accesses (Unspecified)
system.caches.controllers0.forwardFromL1.m_buf_msgs     0.001134                       # Average number of messages in buffer (Unspecified)
system.caches.controllers0.forwardFromL1.m_stall_time  4999.938195                       # Average number of cycles messages are stalled in this MB (Unspecified)
system.caches.controllers0.mandatoryQueue.m_buf_msgs     0.153887                       # Average number of messages in buffer (Unspecified)
system.caches.controllers0.mandatoryQueue.m_stall_time   999.999997                       # Average number of cycles messages are stalled in this MB (Unspecified)
system.caches.controllers0.power_state.pwrStateResidencyTicks::UNDEFINED 316915711000                       # Cumulative time (in ticks) in various power states (Tick)
system.caches.controllers0.requestToL1.m_buf_msgs     0.005108                       # Average number of messages in buffer (Unspecified)
system.caches.controllers0.requestToL1.m_stall_time   999.999994                       # Average number of cycles messages are stalled in this MB (Unspecified)
system.caches.controllers0.responseFromL1.m_buf_msgs     0.003946                       # Average number of messages in buffer (Unspecified)
system.caches.controllers0.responseFromL1.m_stall_time  4999.997933                       # Average number of cycles messages are stalled in this MB (Unspecified)
system.caches.controllers0.responseToL1.m_buf_msgs     0.000066                       # Average number of messages in buffer (Unspecified)
system.caches.controllers0.responseToL1.m_stall_time   999.950056                       # Average number of cycles messages are stalled in this MB (Unspecified)
system.caches.controllers0.xyzStatsObject.power_state.pwrStateResidencyTicks::UNDEFINED 316915711000                       # Cumulative time (in ticks) in various power states (Tick)
system.caches.controllers1.DCache.m_demand_hits            0                       # Number of cache demand hits (Unspecified)
system.caches.controllers1.DCache.m_demand_misses            0                       # Number of cache demand misses (Unspecified)
system.caches.controllers1.DCache.m_demand_accesses            0                       # Number of cache demand accesses (Unspecified)
system.caches.controllers1.ICache.m_demand_hits            0                       # Number of cache demand hits (Unspecified)
system.caches.controllers1.ICache.m_demand_misses            0                       # Number of cache demand misses (Unspecified)
system.caches.controllers1.ICache.m_demand_accesses            0                       # Number of cache demand accesses (Unspecified)
system.caches.controllers1.forwardFromL1.m_buf_msgs     0.000311                       # Average number of messages in buffer (Unspecified)
system.caches.controllers1.forwardFromL1.m_stall_time  1941.813383                       # Average number of cycles messages are stalled in this MB (Unspecified)
system.caches.controllers1.mandatoryQueue.m_buf_msgs     0.035964                       # Average number of messages in buffer (Unspecified)
system.caches.controllers1.mandatoryQueue.m_stall_time   388.381379                       # Average number of cycles messages are stalled in this MB (Unspecified)
system.caches.controllers1.power_state.pwrStateResidencyTicks::UNDEFINED 316915711000                       # Cumulative time (in ticks) in various power states (Tick)
system.caches.controllers1.requestToL1.m_buf_msgs     0.001119                       # Average number of messages in buffer (Unspecified)
system.caches.controllers1.requestToL1.m_stall_time   388.381376                       # Average number of cycles messages are stalled in this MB (Unspecified)
system.caches.controllers1.responseFromL1.m_buf_msgs     0.000894                       # Average number of messages in buffer (Unspecified)
system.caches.controllers1.responseFromL1.m_stall_time  1941.906455                       # Average number of cycles messages are stalled in this MB (Unspecified)
system.caches.controllers1.responseToL1.m_buf_msgs     0.000019                       # Average number of messages in buffer (Unspecified)
system.caches.controllers1.responseToL1.m_stall_time   388.258893                       # Average number of cycles messages are stalled in this MB (Unspecified)
system.caches.controllers1.xyzStatsObject.power_state.pwrStateResidencyTicks::UNDEFINED 316915711000                       # Cumulative time (in ticks) in various power states (Tick)
system.caches.controllers2.DCache.m_demand_hits            0                       # Number of cache demand hits (Unspecified)
system.caches.controllers2.DCache.m_demand_misses            0                       # Number of cache demand misses (Unspecified)
system.caches.controllers2.DCache.m_demand_accesses            0                       # Number of cache demand accesses (Unspecified)
system.caches.controllers2.ICache.m_demand_hits            0                       # Number of cache demand hits (Unspecified)
system.caches.controllers2.ICache.m_demand_misses            0                       # Number of cache demand misses (Unspecified)
system.caches.controllers2.ICache.m_demand_accesses            0                       # Number of cache demand accesses (Unspecified)
system.caches.controllers2.forwardFromL1.m_buf_msgs     0.008944                       # Average number of messages in buffer (Unspecified)
system.caches.controllers2.forwardFromL1.m_stall_time  1940.790237                       # Average number of cycles messages are stalled in this MB (Unspecified)
system.caches.controllers2.forwardFromL1.m_stall_count            1                       # Number of times messages were stalled (Unspecified)
system.caches.controllers2.mandatoryQueue.m_buf_msgs     0.039636                       # Average number of messages in buffer (Unspecified)
system.caches.controllers2.mandatoryQueue.m_stall_time   388.174100                       # Average number of cycles messages are stalled in this MB (Unspecified)
system.caches.controllers2.power_state.pwrStateResidencyTicks::UNDEFINED 316915711000                       # Cumulative time (in ticks) in various power states (Tick)
system.caches.controllers2.requestToL1.m_buf_msgs     0.001357                       # Average number of messages in buffer (Unspecified)
system.caches.controllers2.requestToL1.m_stall_time   388.174097                       # Average number of cycles messages are stalled in this MB (Unspecified)
system.caches.controllers2.responseFromL1.m_buf_msgs     0.001066                       # Average number of messages in buffer (Unspecified)
system.caches.controllers2.responseFromL1.m_stall_time  1940.868608                       # Average number of cycles messages are stalled in this MB (Unspecified)
system.caches.controllers2.responseToL1.m_buf_msgs     0.000018                       # Average number of messages in buffer (Unspecified)
system.caches.controllers2.responseToL1.m_stall_time   388.143376                       # Average number of cycles messages are stalled in this MB (Unspecified)
system.caches.controllers2.xyzStatsObject.power_state.pwrStateResidencyTicks::UNDEFINED 316915711000                       # Cumulative time (in ticks) in various power states (Tick)
system.caches.controllers3.DCache.m_demand_hits            0                       # Number of cache demand hits (Unspecified)
system.caches.controllers3.DCache.m_demand_misses            0                       # Number of cache demand misses (Unspecified)
system.caches.controllers3.DCache.m_demand_accesses            0                       # Number of cache demand accesses (Unspecified)
system.caches.controllers3.ICache.m_demand_hits            0                       # Number of cache demand hits (Unspecified)
system.caches.controllers3.ICache.m_demand_misses            0                       # Number of cache demand misses (Unspecified)
system.caches.controllers3.ICache.m_demand_accesses            0                       # Number of cache demand accesses (Unspecified)
system.caches.controllers3.forwardFromL1.m_buf_msgs     0.006098                       # Average number of messages in buffer (Unspecified)
system.caches.controllers3.forwardFromL1.m_stall_time  1939.690406                       # Average number of cycles messages are stalled in this MB (Unspecified)
system.caches.controllers3.forwardFromL1.m_stall_count            1                       # Number of times messages were stalled (Unspecified)
system.caches.controllers3.mandatoryQueue.m_buf_msgs     0.042633                       # Average number of messages in buffer (Unspecified)
system.caches.controllers3.mandatoryQueue.m_stall_time   387.968500                       # Average number of cycles messages are stalled in this MB (Unspecified)
system.caches.controllers3.power_state.pwrStateResidencyTicks::UNDEFINED 316915711000                       # Cumulative time (in ticks) in various power states (Tick)
system.caches.controllers3.requestToL1.m_buf_msgs     0.001287                       # Average number of messages in buffer (Unspecified)
system.caches.controllers3.requestToL1.m_stall_time   387.968497                       # Average number of cycles messages are stalled in this MB (Unspecified)
system.caches.controllers3.responseFromL1.m_buf_msgs     0.001024                       # Average number of messages in buffer (Unspecified)
system.caches.controllers3.responseFromL1.m_stall_time  1939.838618                       # Average number of cycles messages are stalled in this MB (Unspecified)
system.caches.controllers3.responseToL1.m_buf_msgs     0.000021                       # Average number of messages in buffer (Unspecified)
system.caches.controllers3.responseToL1.m_stall_time   387.933263                       # Average number of cycles messages are stalled in this MB (Unspecified)
system.caches.controllers3.xyzStatsObject.power_state.pwrStateResidencyTicks::UNDEFINED 316915711000                       # Cumulative time (in ticks) in various power states (Tick)
system.caches.controllers4.cacheMemory.m_demand_hits            0                       # Number of cache demand hits (Unspecified)
system.caches.controllers4.cacheMemory.m_demand_misses            0                       # Number of cache demand misses (Unspecified)
system.caches.controllers4.cacheMemory.m_demand_accesses            0                       # Number of cache demand accesses (Unspecified)
system.caches.controllers4.forwardFromDir.m_buf_msgs     0.001753                       # Average number of messages in buffer (Unspecified)
system.caches.controllers4.forwardFromDir.m_stall_time  5164.285118                       # Average number of cycles messages are stalled in this MB (Unspecified)
system.caches.controllers4.forwardFromDir.m_stall_count         1405                       # Number of times messages were stalled (Unspecified)
system.caches.controllers4.forwardToL0.m_buf_msgs     0.001134                       # Average number of messages in buffer (Unspecified)
system.caches.controllers4.forwardToL0.m_stall_time   999.971649                       # Average number of cycles messages are stalled in this MB (Unspecified)
system.caches.controllers4.power_state.pwrStateResidencyTicks::UNDEFINED 316915711000                       # Cumulative time (in ticks) in various power states (Tick)
system.caches.controllers4.requestFromL0.m_buf_msgs     0.084256                       # Average number of messages in buffer (Unspecified)
system.caches.controllers4.requestFromL0.m_stall_time 43146.713058                       # Average number of cycles messages are stalled in this MB (Unspecified)
system.caches.controllers4.requestFromL0.m_stall_count       559690                       # Number of times messages were stalled (Unspecified)
system.caches.controllers4.requestToDir.m_buf_msgs     0.003612                       # Average number of messages in buffer (Unspecified)
system.caches.controllers4.requestToDir.m_stall_time   999.999978                       # Average number of cycles messages are stalled in this MB (Unspecified)
system.caches.controllers4.responseFromDirOrSibling.m_buf_msgs     0.001908                       # Average number of messages in buffer (Unspecified)
system.caches.controllers4.responseFromDirOrSibling.m_stall_time 12964.501482                       # Average number of cycles messages are stalled in this MB (Unspecified)
system.caches.controllers4.responseFromL0.m_buf_msgs     0.000066                       # Average number of messages in buffer (Unspecified)
system.caches.controllers4.responseFromL0.m_stall_time  4999.750217                       # Average number of cycles messages are stalled in this MB (Unspecified)
system.caches.controllers4.responseToDirOrSibling.m_buf_msgs     0.000005                       # Average number of messages in buffer (Unspecified)
system.caches.controllers4.responseToDirOrSibling.m_stall_time   388.380912                       # Average number of cycles messages are stalled in this MB (Unspecified)
system.caches.controllers4.responseToL0.m_buf_msgs     0.003946                       # Average number of messages in buffer (Unspecified)
system.caches.controllers4.responseToL0.m_stall_time   999.999599                       # Average number of cycles messages are stalled in this MB (Unspecified)
system.caches.controllers4.xyzStatsObject.power_state.pwrStateResidencyTicks::UNDEFINED 316915711000                       # Cumulative time (in ticks) in various power states (Tick)
system.caches.controllers5.cacheMemory.m_demand_hits            0                       # Number of cache demand hits (Unspecified)
system.caches.controllers5.cacheMemory.m_demand_misses            0                       # Number of cache demand misses (Unspecified)
system.caches.controllers5.cacheMemory.m_demand_accesses            0                       # Number of cache demand accesses (Unspecified)
system.caches.controllers5.forwardFromDir.m_buf_msgs     0.000462                       # Average number of messages in buffer (Unspecified)
system.caches.controllers5.forwardFromDir.m_stall_time  2127.395502                       # Average number of cycles messages are stalled in this MB (Unspecified)
system.caches.controllers5.forwardFromDir.m_stall_count         1299                       # Number of times messages were stalled (Unspecified)
system.caches.controllers5.forwardToL0.m_buf_msgs     0.000311                       # Average number of messages in buffer (Unspecified)
system.caches.controllers5.forwardToL0.m_stall_time   388.343805                       # Average number of cycles messages are stalled in this MB (Unspecified)
system.caches.controllers5.power_state.pwrStateResidencyTicks::UNDEFINED 316915711000                       # Cumulative time (in ticks) in various power states (Tick)
system.caches.controllers5.requestFromL0.m_buf_msgs     0.065502                       # Average number of messages in buffer (Unspecified)
system.caches.controllers5.requestFromL0.m_stall_time 34611.170035                       # Average number of cycles messages are stalled in this MB (Unspecified)
system.caches.controllers5.requestFromL0.m_stall_count       137610                       # Number of times messages were stalled (Unspecified)
system.caches.controllers5.requestToDir.m_buf_msgs     0.000929                       # Average number of messages in buffer (Unspecified)
system.caches.controllers5.requestToDir.m_stall_time   388.381360                       # Average number of cycles messages are stalled in this MB (Unspecified)
system.caches.controllers5.responseFromDirOrSibling.m_buf_msgs     0.000512                       # Average number of messages in buffer (Unspecified)
system.caches.controllers5.responseFromDirOrSibling.m_stall_time  5022.516874                       # Average number of cycles messages are stalled in this MB (Unspecified)
system.caches.controllers5.responseFromL0.m_buf_msgs     0.000019                       # Average number of messages in buffer (Unspecified)
system.caches.controllers5.responseFromL0.m_stall_time  1941.294400                       # Average number of cycles messages are stalled in this MB (Unspecified)
system.caches.controllers5.responseToDirOrSibling.m_buf_msgs     0.000004                       # Average number of messages in buffer (Unspecified)
system.caches.controllers5.responseToDirOrSibling.m_stall_time   388.154732                       # Average number of cycles messages are stalled in this MB (Unspecified)
system.caches.controllers5.responseToL0.m_buf_msgs     0.000894                       # Average number of messages in buffer (Unspecified)
system.caches.controllers5.responseToL0.m_stall_time   388.381304                       # Average number of cycles messages are stalled in this MB (Unspecified)
system.caches.controllers5.xyzStatsObject.power_state.pwrStateResidencyTicks::UNDEFINED 316915711000                       # Cumulative time (in ticks) in various power states (Tick)
system.caches.controllers6.cacheMemory.m_demand_hits            0                       # Number of cache demand hits (Unspecified)
system.caches.controllers6.cacheMemory.m_demand_misses            0                       # Number of cache demand misses (Unspecified)
system.caches.controllers6.cacheMemory.m_demand_accesses            0                       # Number of cache demand accesses (Unspecified)
system.caches.controllers6.forwardFromDir.m_buf_msgs     0.000513                       # Average number of messages in buffer (Unspecified)
system.caches.controllers6.forwardFromDir.m_stall_time  2100.352516                       # Average number of cycles messages are stalled in this MB (Unspecified)
system.caches.controllers6.forwardFromDir.m_stall_count          988                       # Number of times messages were stalled (Unspecified)
system.caches.controllers6.forwardToL0.m_buf_msgs     0.000369                       # Average number of messages in buffer (Unspecified)
system.caches.controllers6.forwardToL0.m_stall_time   388.143392                       # Average number of cycles messages are stalled in this MB (Unspecified)
system.caches.controllers6.power_state.pwrStateResidencyTicks::UNDEFINED 316915711000                       # Cumulative time (in ticks) in various power states (Tick)
system.caches.controllers6.requestFromL0.m_buf_msgs     0.069622                       # Average number of messages in buffer (Unspecified)
system.caches.controllers6.requestFromL0.m_stall_time 36236.542792                       # Average number of cycles messages are stalled in this MB (Unspecified)
system.caches.controllers6.requestFromL0.m_stall_count       157000                       # Number of times messages were stalled (Unspecified)
system.caches.controllers6.requestToDir.m_buf_msgs     0.001054                       # Average number of messages in buffer (Unspecified)
system.caches.controllers6.requestToDir.m_stall_time   388.174081                       # Average number of cycles messages are stalled in this MB (Unspecified)
system.caches.controllers6.responseFromDirOrSibling.m_buf_msgs     0.000575                       # Average number of messages in buffer (Unspecified)
system.caches.controllers6.responseFromDirOrSibling.m_stall_time  5027.656417                       # Average number of cycles messages are stalled in this MB (Unspecified)
system.caches.controllers6.responseFromL0.m_buf_msgs     0.000018                       # Average number of messages in buffer (Unspecified)
system.caches.controllers6.responseFromL0.m_stall_time  1941.008501                       # Average number of cycles messages are stalled in this MB (Unspecified)
system.caches.controllers6.responseToDirOrSibling.m_buf_msgs     0.000004                       # Average number of messages in buffer (Unspecified)
system.caches.controllers6.responseToDirOrSibling.m_stall_time   388.136295                       # Average number of cycles messages are stalled in this MB (Unspecified)
system.caches.controllers6.responseToL0.m_buf_msgs     0.001066                       # Average number of messages in buffer (Unspecified)
system.caches.controllers6.responseToL0.m_stall_time   388.173734                       # Average number of cycles messages are stalled in this MB (Unspecified)
system.caches.controllers6.xyzStatsObject.power_state.pwrStateResidencyTicks::UNDEFINED 316915711000                       # Cumulative time (in ticks) in various power states (Tick)
system.caches.controllers7.cacheMemory.m_demand_hits            0                       # Number of cache demand hits (Unspecified)
system.caches.controllers7.cacheMemory.m_demand_misses            0                       # Number of cache demand misses (Unspecified)
system.caches.controllers7.cacheMemory.m_demand_accesses            0                       # Number of cache demand accesses (Unspecified)
system.caches.controllers7.forwardFromDir.m_buf_msgs     0.000491                       # Average number of messages in buffer (Unspecified)
system.caches.controllers7.forwardFromDir.m_stall_time  2056.422189                       # Average number of cycles messages are stalled in this MB (Unspecified)
system.caches.controllers7.forwardFromDir.m_stall_count          297                       # Number of times messages were stalled (Unspecified)
system.caches.controllers7.forwardToL0.m_buf_msgs     0.000363                       # Average number of messages in buffer (Unspecified)
system.caches.controllers7.forwardToL0.m_stall_time   387.933279                       # Average number of cycles messages are stalled in this MB (Unspecified)
system.caches.controllers7.power_state.pwrStateResidencyTicks::UNDEFINED 316915711000                       # Cumulative time (in ticks) in various power states (Tick)
system.caches.controllers7.requestFromL0.m_buf_msgs     0.068835                       # Average number of messages in buffer (Unspecified)
system.caches.controllers7.requestFromL0.m_stall_time 35794.100808                       # Average number of cycles messages are stalled in this MB (Unspecified)
system.caches.controllers7.requestFromL0.m_stall_count       158514                       # Number of times messages were stalled (Unspecified)
system.caches.controllers7.requestToDir.m_buf_msgs     0.001060                       # Average number of messages in buffer (Unspecified)
system.caches.controllers7.requestToDir.m_stall_time   387.968481                       # Average number of cycles messages are stalled in this MB (Unspecified)
system.caches.controllers7.responseFromDirOrSibling.m_buf_msgs     0.000581                       # Average number of messages in buffer (Unspecified)
system.caches.controllers7.responseFromDirOrSibling.m_stall_time  5038.257071                       # Average number of cycles messages are stalled in this MB (Unspecified)
system.caches.controllers7.responseFromL0.m_buf_msgs     0.000021                       # Average number of messages in buffer (Unspecified)
system.caches.controllers7.responseFromL0.m_stall_time  1939.666254                       # Average number of cycles messages are stalled in this MB (Unspecified)
system.caches.controllers7.responseToDirOrSibling.m_buf_msgs     0.000001                       # Average number of messages in buffer (Unspecified)
system.caches.controllers7.responseToDirOrSibling.m_stall_time   387.924482                       # Average number of cycles messages are stalled in this MB (Unspecified)
system.caches.controllers7.responseToL0.m_buf_msgs     0.001024                       # Average number of messages in buffer (Unspecified)
system.caches.controllers7.responseToL0.m_stall_time   387.967736                       # Average number of cycles messages are stalled in this MB (Unspecified)
system.caches.controllers7.xyzStatsObject.power_state.pwrStateResidencyTicks::UNDEFINED 316915711000                       # Cumulative time (in ticks) in various power states (Tick)
system.caches.controllers8.cacheMemory.m_demand_hits            0                       # Number of cache demand hits (Unspecified)
system.caches.controllers8.cacheMemory.m_demand_misses            0                       # Number of cache demand misses (Unspecified)
system.caches.controllers8.cacheMemory.m_demand_accesses            0                       # Number of cache demand accesses (Unspecified)
system.caches.controllers8.forwardToCache.m_buf_msgs     0.003573                       # Average number of messages in buffer (Unspecified)
system.caches.controllers8.forwardToCache.m_stall_time   999.987170                       # Average number of cycles messages are stalled in this MB (Unspecified)
system.caches.controllers8.power_state.pwrStateResidencyTicks::UNDEFINED 316915711000                       # Cumulative time (in ticks) in various power states (Tick)
system.caches.controllers8.requestFromCache.m_not_avail_count       651670                       # Number of times this buffer did not have N slots available (Unspecified)
system.caches.controllers8.requestFromCache.m_buf_msgs     0.006654                       # Average number of messages in buffer (Unspecified)
system.caches.controllers8.requestFromCache.m_stall_time 139706.138403                       # Average number of cycles messages are stalled in this MB (Unspecified)
system.caches.controllers8.requestFromCache.m_occupancy     0.006654                       # Average occupancy of buffer capacity (Unspecified)
system.caches.controllers8.requestToMemory.m_buf_msgs     0.004803                       # Average number of messages in buffer (Unspecified)
system.caches.controllers8.requestToMemory.m_stall_time   999.999962                       # Average number of cycles messages are stalled in this MB (Unspecified)
system.caches.controllers8.responseFromMemory.m_buf_msgs     0.004803                       # Average number of messages in buffer (Unspecified)
system.caches.controllers8.responseFromMemory.m_stall_time   999.999643                       # Average number of cycles messages are stalled in this MB (Unspecified)
system.caches.controllers8.responseToCache.m_buf_msgs     0.032046                       # Average number of messages in buffer (Unspecified)
system.caches.controllers8.responseToCache.m_stall_time  8999.996535                       # Average number of cycles messages are stalled in this MB (Unspecified)
system.caches.controllers8.xyzCacheMemory.m_demand_hits            0                       # Number of cache demand hits (Unspecified)
system.caches.controllers8.xyzCacheMemory.m_demand_misses            0                       # Number of cache demand misses (Unspecified)
system.caches.controllers8.xyzCacheMemory.m_demand_accesses            0                       # Number of cache demand accesses (Unspecified)
system.caches.controllers8.xyzStatsObject.power_state.pwrStateResidencyTicks::UNDEFINED 316915711000                       # Cumulative time (in ticks) in various power states (Tick)
system.caches.network.msg_count.Control      11299170                       (Unspecified)
system.caches.network.msg_byte.Control       90393360                       (Unspecified)
system.caches.network.msg_count.Data          7715058                       (Unspecified)
system.caches.network.msg_byte.Data         555484176                       (Unspecified)
system.caches.network.msg_count.Response_Data       905046                       (Unspecified)
system.caches.network.msg_byte.Response_Data     65163312                       (Unspecified)
system.caches.network.int_link_buffers102.m_buf_msgs     0.000369                       # Average number of messages in buffer (Unspecified)
system.caches.network.int_link_buffers102.m_stall_time  1164.496076                       # Average number of cycles messages are stalled in this MB (Unspecified)
system.caches.network.int_link_buffers103.m_buf_msgs     0.001066                       # Average number of messages in buffer (Unspecified)
system.caches.network.int_link_buffers103.m_stall_time  1164.521184                       # Average number of cycles messages are stalled in this MB (Unspecified)
system.caches.network.int_link_buffers107.m_buf_msgs     0.000001                       # Average number of messages in buffer (Unspecified)
system.caches.network.int_link_buffers107.m_stall_time  1164.023222                       # Average number of cycles messages are stalled in this MB (Unspecified)
system.caches.network.int_link_buffers11.m_buf_msgs     0.001119                       # Average number of messages in buffer (Unspecified)
system.caches.network.int_link_buffers11.m_stall_time  1528.840667                       # Average number of cycles messages are stalled in this MB (Unspecified)
system.caches.network.int_link_buffers114.m_buf_msgs     0.000002                       # Average number of messages in buffer (Unspecified)
system.caches.network.int_link_buffers114.m_stall_time  1164.408867                       # Average number of cycles messages are stalled in this MB (Unspecified)
system.caches.network.int_link_buffers12.m_buf_msgs     0.000019                       # Average number of messages in buffer (Unspecified)
system.caches.network.int_link_buffers12.m_stall_time  1164.776659                       # Average number of cycles messages are stalled in this MB (Unspecified)
system.caches.network.int_link_buffers121.m_buf_msgs     0.000001                       # Average number of messages in buffer (Unspecified)
system.caches.network.int_link_buffers121.m_stall_time  1153.953898                       # Average number of cycles messages are stalled in this MB (Unspecified)
system.caches.network.int_link_buffers126.m_buf_msgs     0.217001                       # Average number of messages in buffer (Unspecified)
system.caches.network.int_link_buffers126.m_stall_time 90194.747281                       # Average number of cycles messages are stalled in this MB (Unspecified)
system.caches.network.int_link_buffers137.m_buf_msgs     0.000363                       # Average number of messages in buffer (Unspecified)
[...]
system.caches.controllers2.xyzStatsObjectlatency::underflows            0      0.00%      0.00% # Mem access latency (Unspecified)
system.caches.controllers2.xyzStatsObjectlatency::0-49999       337743    100.00%    100.00% # Mem access latency (Unspecified)
system.caches.controllers2.xyzStatsObjectlatency::50000-99999            0      0.00%    100.00% # Mem access latency (Unspecified)
system.caches.controllers2.xyzStatsObjectlatency::100000            0      0.00%    100.00% # Mem access latency (Unspecified)
system.caches.controllers2.xyzStatsObjectlatency::overflows            0      0.00%    100.00% # Mem access latency (Unspecified)
system.caches.controllers2.xyzStatsObjectlatency::min_value           10                       # Mem access latency (Unspecified)
system.caches.controllers2.xyzStatsObjectlatency::max_value         1121                       # Mem access latency (Unspecified)
system.caches.controllers2.xyzStatsObjectlatency::total       337743                       # Mem access latency (Unspecified)
system.caches.controllers3.xyzStatsObject.total_put            0                       # Total number of put (PutM + PutS) (Unspecified)
system.caches.controllers3.xyzStatsObject.total_put_as_wt            0                       # Total number of put as write through (Unspecified)
system.caches.controllers3.xyzStatsObject.total_putm            0                       # Total number of PutM (Unspecified)
system.caches.controllers3.xyzStatsObject.total_putm_as_wt            0                       # Total number of PutM as write through (Unspecified)
system.caches.controllers3.xyzStatsObject.total_puts            0                       # Total number of PutS (Unspecified)
system.caches.controllers3.xyzStatsObject.total_puts_as_wt            0                       # Total number of PutS as write through (Unspecified)
system.caches.controllers3.xyzStatsObject.total_repl            0                       # Total Replacement (Unspecified)
system.caches.controllers3.xyzStatsObject.total_repl_llc            0                       # Total Replacement of LLC line (Unspecified)
system.caches.controllers3.xyzStatsObject.total_repl_owned            0                       # Total Replacement of owned line (Unspecified)
system.caches.controllers3.xyzStatsObject.total_repl_shared            0                       # Total Replacement of shared line (Unspecified)
system.caches.controllers3.xyzStatsObject.wt_putRatio          nan                       # WT / Put (Unspecified)
system.caches.controllers3.xyzStatsObject.wt_putmRatio          nan                       # PutM WT / PutM (Unspecified)
system.caches.controllers3.xyzStatsObject.wt_putsRatio          nan                       # PutS WT / PutS (Unspecified)
system.caches.controllers3.xyzStatsObjectlatency::samples       324589                       # Mem access latency (Unspecified)
system.caches.controllers3.xyzStatsObjectlatency::mean   269.327094                       # Mem access latency (Unspecified)
system.caches.controllers3.xyzStatsObjectlatency::stdev   293.059126                       # Mem access latency (Unspecified)
system.caches.controllers3.xyzStatsObjectlatency::underflows            0      0.00%      0.00% # Mem access latency (Unspecified)
system.caches.controllers3.xyzStatsObjectlatency::0-49999       324589    100.00%    100.00% # Mem access latency (Unspecified)
system.caches.controllers3.xyzStatsObjectlatency::50000-99999            0      0.00%    100.00% # Mem access latency (Unspecified)
system.caches.controllers3.xyzStatsObjectlatency::100000            0      0.00%    100.00% # Mem access latency (Unspecified)
system.caches.controllers3.xyzStatsObjectlatency::overflows            0      0.00%    100.00% # Mem access latency (Unspecified)
system.caches.controllers3.xyzStatsObjectlatency::min_value           10                       # Mem access latency (Unspecified)
system.caches.controllers3.xyzStatsObjectlatency::max_value         1114                       # Mem access latency (Unspecified)
system.caches.controllers3.xyzStatsObjectlatency::total       324589                       # Mem access latency (Unspecified)
system.caches.controllers4.xyzStatsObject.total_put            0                       # Total number of put (PutM + PutS) (Unspecified)
system.caches.controllers4.xyzStatsObject.total_put_as_wt            0                       # Total number of put as write through (Unspecified)
system.caches.controllers4.xyzStatsObject.total_putm            0                       # Total number of PutM (Unspecified)
system.caches.controllers4.xyzStatsObject.total_putm_as_wt            0                       # Total number of PutM as write through (Unspecified)
system.caches.controllers4.xyzStatsObject.total_puts            0                       # Total number of PutS (Unspecified)
system.caches.controllers4.xyzStatsObject.total_puts_as_wt            0                       # Total number of PutS as write through (Unspecified)
system.caches.controllers4.xyzStatsObject.total_repl            0                       # Total Replacement (Unspecified)
system.caches.controllers4.xyzStatsObject.total_repl_llc            0                       # Total Replacement of LLC line (Unspecified)
system.caches.controllers4.xyzStatsObject.total_repl_owned            0                       # Total Replacement of owned line (Unspecified)
system.caches.controllers4.xyzStatsObject.total_repl_shared            0                       # Total Replacement of shared line (Unspecified)
system.caches.controllers4.xyzStatsObject.wt_putRatio          nan                       # WT / Put (Unspecified)
system.caches.controllers4.xyzStatsObject.wt_putmRatio          nan                       # PutM WT / PutM (Unspecified)
system.caches.controllers4.xyzStatsObject.wt_putsRatio          nan                       # PutS WT / PutS (Unspecified)
system.caches.controllers4.xyzStatsObjectlatency::samples       604648                       # Mem access latency (Unspecified)
system.caches.controllers4.xyzStatsObjectlatency::mean   266.046305                       # Mem access latency (Unspecified)
system.caches.controllers4.xyzStatsObjectlatency::stdev   126.977383                       # Mem access latency (Unspecified)
system.caches.controllers4.xyzStatsObjectlatency::underflows            0      0.00%      0.00% # Mem access latency (Unspecified)
system.caches.controllers4.xyzStatsObjectlatency::0-49999       604648    100.00%    100.00% # Mem access latency (Unspecified)
system.caches.controllers4.xyzStatsObjectlatency::50000-99999            0      0.00%    100.00% # Mem access latency (Unspecified)
system.caches.controllers4.xyzStatsObjectlatency::100000            0      0.00%    100.00% # Mem access latency (Unspecified)
system.caches.controllers4.xyzStatsObjectlatency::overflows            0      0.00%    100.00% # Mem access latency (Unspecified)
system.caches.controllers4.xyzStatsObjectlatency::min_value           15                       # Mem access latency (Unspecified)
system.caches.controllers4.xyzStatsObjectlatency::max_value          732                       # Mem access latency (Unspecified)
system.caches.controllers4.xyzStatsObjectlatency::total       604648                       # Mem access latency (Unspecified)
system.caches.controllers5.xyzStatsObject.total_put            0                       # Total number of put (PutM + PutS) (Unspecified)
system.caches.controllers5.xyzStatsObject.total_put_as_wt            0                       # Total number of put as write through (Unspecified)
system.caches.controllers5.xyzStatsObject.total_putm            0                       # Total number of PutM (Unspecified)
system.caches.controllers5.xyzStatsObject.total_putm_as_wt            0                       # Total number of PutM as write through (Unspecified)
system.caches.controllers5.xyzStatsObject.total_puts            0                       # Total number of PutS (Unspecified)
system.caches.controllers5.xyzStatsObject.total_puts_as_wt            0                       # Total number of PutS as write through (Unspecified)
system.caches.controllers5.xyzStatsObject.total_repl            0                       # Total Replacement (Unspecified)
system.caches.controllers5.xyzStatsObject.total_repl_llc            0                       # Total Replacement of LLC line (Unspecified)
system.caches.controllers5.xyzStatsObject.total_repl_owned            0                       # Total Replacement of owned line (Unspecified)
system.caches.controllers5.xyzStatsObject.total_repl_shared            0                       # Total Replacement of shared line (Unspecified)
system.caches.controllers5.xyzStatsObject.wt_putRatio          nan                       # WT / Put (Unspecified)
system.caches.controllers5.xyzStatsObject.wt_putmRatio          nan                       # PutM WT / PutM (Unspecified)
system.caches.controllers5.xyzStatsObject.wt_putsRatio          nan                       # PutS WT / PutS (Unspecified)
system.caches.controllers5.xyzStatsObjectlatency::samples       162095                       # Mem access latency (Unspecified)
system.caches.controllers5.xyzStatsObjectlatency::mean   356.291724                       # Mem access latency (Unspecified)
system.caches.controllers5.xyzStatsObjectlatency::stdev   174.333277                       # Mem access latency (Unspecified)
system.caches.controllers5.xyzStatsObjectlatency::underflows            0      0.00%      0.00% # Mem access latency (Unspecified)
system.caches.controllers5.xyzStatsObjectlatency::0-49999       162095    100.00%    100.00% # Mem access latency (Unspecified)
system.caches.controllers5.xyzStatsObjectlatency::50000-99999            0      0.00%    100.00% # Mem access latency (Unspecified)
system.caches.controllers5.xyzStatsObjectlatency::100000            0      0.00%    100.00% # Mem access latency (Unspecified)
system.caches.controllers5.xyzStatsObjectlatency::overflows            0      0.00%    100.00% # Mem access latency (Unspecified)
system.caches.controllers5.xyzStatsObjectlatency::min_value           15                       # Mem access latency (Unspecified)
system.caches.controllers5.xyzStatsObjectlatency::max_value          740                       # Mem access latency (Unspecified)
system.caches.controllers5.xyzStatsObjectlatency::total       162095                       # Mem access latency (Unspecified)
system.caches.controllers6.xyzStatsObject.total_put            0                       # Total number of put (PutM + PutS) (Unspecified)
system.caches.controllers6.xyzStatsObject.total_put_as_wt            0                       # Total number of put as write through (Unspecified)
system.caches.controllers6.xyzStatsObject.total_putm            0                       # Total number of PutM (Unspecified)
system.caches.controllers6.xyzStatsObject.total_putm_as_wt            0                       # Total number of PutM as write through (Unspecified)
system.caches.controllers6.xyzStatsObject.total_puts            0                       # Total number of PutS (Unspecified)
system.caches.controllers6.xyzStatsObject.total_puts_as_wt            0                       # Total number of PutS as write through (Unspecified)
system.caches.controllers6.xyzStatsObject.total_repl            0                       # Total Replacement (Unspecified)
system.caches.controllers6.xyzStatsObject.total_repl_llc            0                       # Total Replacement of LLC line (Unspecified)
system.caches.controllers6.xyzStatsObject.total_repl_owned            0                       # Total Replacement of owned line (Unspecified)
system.caches.controllers6.xyzStatsObject.total_repl_shared            0                       # Total Replacement of shared line (Unspecified)
system.caches.controllers6.xyzStatsObject.wt_putRatio          nan                       # WT / Put (Unspecified)
system.caches.controllers6.xyzStatsObject.wt_putmRatio          nan                       # PutM WT / PutM (Unspecified)
system.caches.controllers6.xyzStatsObject.wt_putsRatio          nan                       # PutS WT / PutS (Unspecified)
system.caches.controllers6.xyzStatsObjectlatency::samples       182249                       # Mem access latency (Unspecified)
system.caches.controllers6.xyzStatsObjectlatency::mean   343.044478                       # Mem access latency (Unspecified)
system.caches.controllers6.xyzStatsObjectlatency::stdev   174.167133                       # Mem access latency (Unspecified)
system.caches.controllers6.xyzStatsObjectlatency::underflows            0      0.00%      0.00% # Mem access latency (Unspecified)
system.caches.controllers6.xyzStatsObjectlatency::0-49999       182249    100.00%    100.00% # Mem access latency (Unspecified)
system.caches.controllers6.xyzStatsObjectlatency::50000-99999            0      0.00%    100.00% # Mem access latency (Unspecified)
system.caches.controllers6.xyzStatsObjectlatency::100000            0      0.00%    100.00% # Mem access latency (Unspecified)
system.caches.controllers6.xyzStatsObjectlatency::overflows            0      0.00%    100.00% # Mem access latency (Unspecified)
system.caches.controllers6.xyzStatsObjectlatency::min_value           15                       # Mem access latency (Unspecified)
system.caches.controllers6.xyzStatsObjectlatency::max_value          740                       # Mem access latency (Unspecified)
system.caches.controllers6.xyzStatsObjectlatency::total       182249                       # Mem access latency (Unspecified)
system.caches.controllers7.xyzStatsObject.total_put            0                       # Total number of put (PutM + PutS) (Unspecified)
system.caches.controllers7.xyzStatsObject.total_put_as_wt            0                       # Total number of put as write through (Unspecified)
system.caches.controllers7.xyzStatsObject.total_putm            0                       # Total number of PutM (Unspecified)
system.caches.controllers7.xyzStatsObject.total_putm_as_wt            0                       # Total number of PutM as write through (Unspecified)
system.caches.controllers7.xyzStatsObject.total_puts            0                       # Total number of PutS (Unspecified)
system.caches.controllers7.xyzStatsObject.total_puts_as_wt            0                       # Total number of PutS as write through (Unspecified)
system.caches.controllers7.xyzStatsObject.total_repl            0                       # Total Replacement (Unspecified)
system.caches.controllers7.xyzStatsObject.total_repl_llc            0                       # Total Replacement of LLC line (Unspecified)
system.caches.controllers7.xyzStatsObject.total_repl_owned            0                       # Total Replacement of owned line (Unspecified)
system.caches.controllers7.xyzStatsObject.total_repl_shared            0                       # Total Replacement of shared line (Unspecified)
system.caches.controllers7.xyzStatsObject.wt_putRatio          nan                       # WT / Put (Unspecified)
system.caches.controllers7.xyzStatsObject.wt_putmRatio          nan                       # PutM WT / PutM (Unspecified)
system.caches.controllers7.xyzStatsObject.wt_putsRatio          nan                       # PutS WT / PutS (Unspecified)
system.caches.controllers7.xyzStatsObjectlatency::samples       183940                       # Mem access latency (Unspecified)
system.caches.controllers7.xyzStatsObjectlatency::mean   339.428640                       # Mem access latency (Unspecified)
system.caches.controllers7.xyzStatsObjectlatency::stdev   172.683088                       # Mem access latency (Unspecified)
system.caches.controllers7.xyzStatsObjectlatency::underflows            0      0.00%      0.00% # Mem access latency (Unspecified)
system.caches.controllers7.xyzStatsObjectlatency::0-49999       183940    100.00%    100.00% # Mem access latency (Unspecified)
system.caches.controllers7.xyzStatsObjectlatency::50000-99999            0      0.00%    100.00% # Mem access latency (Unspecified)
system.caches.controllers7.xyzStatsObjectlatency::100000            0      0.00%    100.00% # Mem access latency (Unspecified)
system.caches.controllers7.xyzStatsObjectlatency::overflows            0      0.00%    100.00% # Mem access latency (Unspecified)
system.caches.controllers7.xyzStatsObjectlatency::min_value           15                       # Mem access latency (Unspecified)
system.caches.controllers7.xyzStatsObjectlatency::max_value          732                       # Mem access latency (Unspecified)
system.caches.controllers7.xyzStatsObjectlatency::total       183940                       # Mem access latency (Unspecified)
system.caches.controllers8.xyzStatsObject.total_put      1047298                       # Total number of put (PutM + PutS) (Unspecified)
system.caches.controllers8.xyzStatsObject.total_put_as_wt       846176                       # Total number of put as write through (Unspecified)
system.caches.controllers8.xyzStatsObject.total_putm       325835                       # Total number of PutM (Unspecified)
system.caches.controllers8.xyzStatsObject.total_putm_as_wt       293646                       # Total number of PutM as write through (Unspecified)
system.caches.controllers8.xyzStatsObject.total_puts       721463                       # Total number of PutS (Unspecified)
system.caches.controllers8.xyzStatsObject.total_puts_as_wt       552530                       # Total number of PutS as write through (Unspecified)
system.caches.controllers8.xyzStatsObject.total_repl            0                       # Total Replacement (Unspecified)
system.caches.controllers8.xyzStatsObject.total_repl_llc            0                       # Total Replacement of LLC line (Unspecified)
system.caches.controllers8.xyzStatsObject.total_repl_owned            0                       # Total Replacement of owned line (Unspecified)
system.caches.controllers8.xyzStatsObject.total_repl_shared            0                       # Total Replacement of shared line (Unspecified)
system.caches.controllers8.xyzStatsObject.wt_putRatio     0.807961                       # WT / Put (Unspecified)
system.caches.controllers8.xyzStatsObject.wt_putmRatio     0.901211                       # PutM WT / PutM (Unspecified)
system.caches.controllers8.xyzStatsObject.wt_putsRatio     0.765847                       # PutS WT / PutS (Unspecified)
system.caches.controllers8.xyzStatsObjectlatency::samples            0                       # Mem access latency (Unspecified)
system.caches.controllers8.xyzStatsObjectlatency::mean          nan                       # Mem access latency (Unspecified)
system.caches.controllers8.xyzStatsObjectlatency::stdev          nan                       # Mem access latency (Unspecified)
system.caches.controllers8.xyzStatsObjectlatency::underflows            0                       # Mem access latency (Unspecified)
system.caches.controllers8.xyzStatsObjectlatency::0-49999            0                       # Mem access latency (Unspecified)
system.caches.controllers8.xyzStatsObjectlatency::50000-99999            0                       # Mem access latency (Unspecified)
system.caches.controllers8.xyzStatsObjectlatency::100000            0                       # Mem access latency (Unspecified)
system.caches.controllers8.xyzStatsObjectlatency::overflows            0                       # Mem access latency (Unspecified)
system.caches.controllers8.xyzStatsObjectlatency::min_value            0                       # Mem access latency (Unspecified)
system.caches.controllers8.xyzStatsObjectlatency::max_value            0                       # Mem access latency (Unspecified)
system.caches.controllers8.xyzStatsObjectlatency::total            0                       # Mem access latency (Unspecified)

---------- End Simulation Statistics   ----------
