
---------- Begin Simulation Statistics ----------
simSeconds                                   0.000956                       # Number of seconds simulated (Second)
simTicks                                    956282001                       # Number of ticks simulated (Tick)
finalTick                                   956282001                       # Number of ticks from beginning of simulation (restored from checkpoints and never reset) (Tick)
simFreq                                  1000000000000                       # The number of ticks per simulated second ((Tick/Second))
hostSeconds                                     19.65                       # Real time elapsed on the host (Second)
hostTickRate                                 48674665                       # The number of ticks simulated per host second (ticks/s) ((Tick/Second))
hostMemory                                    5096860                       # Number of bytes of host memory used (Byte)
system.caches.m_outstandReqHistSeqr::bucket_size            1                       (Unspecified)
system.caches.m_outstandReqHistSeqr::max_bucket            9                       (Unspecified)
system.caches.m_outstandReqHistSeqr::samples        50460                       (Unspecified)
system.caches.m_outstandReqHistSeqr::mean            1                       (Unspecified)
system.caches.m_outstandReqHistSeqr::gmean            1                       (Unspecified)
system.caches.m_outstandReqHistSeqr      |           0      0.00%      0.00% |       50460    100.00%    100.00% |           0      0.00%    100.00% |           0      0.00%    100.00% |           0      0.00%    100.00% |           0      0.00%    100.00% |           0      0.00%    100.00% |           0      0.00%    100.00% |           0      0.00%    100.00% |           0      0.00%    100.00% (Unspecified)
system.caches.m_outstandReqHistSeqr::total        50460                       (Unspecified)
system.caches.m_latencyHistSeqr::bucket_size           64                       (Unspecified)
system.caches.m_latencyHistSeqr::max_bucket          639                       (Unspecified)
system.caches.m_latencyHistSeqr::samples        50457                       (Unspecified)
system.caches.m_latencyHistSeqr::mean       74.802941                       (Unspecified)
system.caches.m_latencyHistSeqr::gmean      41.087857                       (Unspecified)
system.caches.m_latencyHistSeqr::stdev      52.028091                       (Unspecified)
system.caches.m_latencyHistSeqr          |       19320     38.29%     38.29% |       24143     47.85%     86.14% |        5948     11.79%     97.93% |         832      1.65%     99.58% |         141      0.28%     99.86% |          51      0.10%     99.96% |           1      0.00%     99.96% |          21      0.04%    100.00% |           0      0.00%    100.00% |           0      0.00%    100.00% (Unspecified)
system.caches.m_latencyHistSeqr::total          50457                       (Unspecified)
system.caches.m_hitLatencyHistSeqr::bucket_size            1                       (Unspecified)
system.caches.m_hitLatencyHistSeqr::max_bucket            9                       (Unspecified)
system.caches.m_hitLatencyHistSeqr::samples         6268                       (Unspecified)
system.caches.m_hitLatencyHistSeqr::mean            1                       (Unspecified)
system.caches.m_hitLatencyHistSeqr::gmean            1                       (Unspecified)
system.caches.m_hitLatencyHistSeqr       |           0      0.00%      0.00% |        6268    100.00%    100.00% |           0      0.00%    100.00% |           0      0.00%    100.00% |           0      0.00%    100.00% |           0      0.00%    100.00% |           0      0.00%    100.00% |           0      0.00%    100.00% |           0      0.00%    100.00% |           0      0.00%    100.00% (Unspecified)
system.caches.m_hitLatencyHistSeqr::total         6268                       (Unspecified)
system.caches.m_missLatencyHistSeqr::bucket_size           64                       (Unspecified)
system.caches.m_missLatencyHistSeqr::max_bucket          639                       (Unspecified)
system.caches.m_missLatencyHistSeqr::samples        44189                       (Unspecified)
system.caches.m_missLatencyHistSeqr::mean    85.271538                       (Unspecified)
system.caches.m_missLatencyHistSeqr::gmean    69.600298                       (Unspecified)
system.caches.m_missLatencyHistSeqr::stdev    46.996492                       (Unspecified)
system.caches.m_missLatencyHistSeqr      |       13052     29.54%     29.54% |       24143     54.64%     84.17% |        5948     13.46%     97.63% |         832      1.88%     99.52% |         141      0.32%     99.83% |          51      0.12%     99.95% |           1      0.00%     99.95% |          21      0.05%    100.00% |           0      0.00%    100.00% |           0      0.00%    100.00% (Unspecified)
system.caches.m_missLatencyHistSeqr::total        44189                       (Unspecified)
system.caches.L0Cache_Controller.Load    |        1269     26.06%     26.06% |        1230     25.26%     51.31% |        1175     24.13%     75.44% |        1196     24.56%    100.00% (Unspecified)
system.caches.L0Cache_Controller.Load::total         4870                       (Unspecified)
system.caches.L0Cache_Controller.Ifetch  |        1268     24.72%     24.72% |        1277     24.89%     49.61% |        1307     25.48%     75.09% |        1278     24.91%    100.00% (Unspecified)
system.caches.L0Cache_Controller.Ifetch::total         5130                       (Unspecified)
system.caches.L0Cache_Controller.Store   |       10147     25.08%     25.08% |       10105     24.98%     50.05% |       10078     24.91%     74.96% |       10130     25.04%    100.00% (Unspecified)
system.caches.L0Cache_Controller.Store::total        40460                       (Unspecified)
system.caches.L0Cache_Controller.Replacement |        5436     25.12%     25.12% |        5476     25.30%     50.42% |        5338     24.67%     75.09% |        5391     24.91%    100.00% (Unspecified)
system.caches.L0Cache_Controller.Replacement::total        21641                       (Unspecified)
system.caches.L0Cache_Controller.Inv     |        5683     25.03%     25.03% |        5635     24.82%     49.86% |        5708     25.14%     75.00% |        5675     25.00%    100.00% (Unspecified)
system.caches.L0Cache_Controller.Inv::total        22701                       (Unspecified)
system.caches.L0Cache_Controller.Data    |        8878     25.02%     25.02% |        8870     25.00%     50.02% |        8851     24.94%     74.96% |        8886     25.04%    100.00% (Unspecified)
system.caches.L0Cache_Controller.Data::total        35485                       (Unspecified)
system.caches.L0Cache_Controller.ExData  |        2207     25.36%     25.36% |        2202     25.30%     50.65% |        2153     24.74%     75.39% |        2142     24.61%    100.00% (Unspecified)
system.caches.L0Cache_Controller.ExData::total         8704                       (Unspecified)
system.caches.L0Cache_Controller.I.Load  |        1102     26.03%     26.03% |        1075     25.40%     51.43% |        1023     24.17%     75.60% |        1033     24.40%    100.00% (Unspecified)
system.caches.L0Cache_Controller.I.Load::total         4233                       (Unspecified)
system.caches.L0Cache_Controller.I.Ifetch |        1245     24.67%     24.67% |        1252     24.81%     49.47% |        1290     25.56%     75.03% |        1260     24.97%    100.00% (Unspecified)
system.caches.L0Cache_Controller.I.Ifetch::total         5047                       (Unspecified)
system.caches.L0Cache_Controller.I.Store |        8735     25.04%     25.04% |        8737     25.05%     50.09% |        8684     24.89%     74.98% |        8727     25.02%    100.00% (Unspecified)
system.caches.L0Cache_Controller.I.Store::total        34883                       (Unspecified)
system.caches.L0Cache_Controller.I.Inv   |          53     23.25%     23.25% |          56     24.56%     47.81% |          61     26.75%     74.56% |          58     25.44%    100.00% (Unspecified)
system.caches.L0Cache_Controller.I.Inv::total          228                       (Unspecified)
system.caches.L0Cache_Controller.IS_D.Inv |           0      0.00%      0.00% |           2     66.67%     66.67% |           0      0.00%     66.67% |           1     33.33%    100.00% (Unspecified)
system.caches.L0Cache_Controller.IS_D.Inv::total            3                       (Unspecified)
system.caches.L0Cache_Controller.IS_D.Data |         140     24.31%     24.31% |         125     21.70%     46.01% |         160     27.78%     73.78% |         151     26.22%    100.00% (Unspecified)
system.caches.L0Cache_Controller.IS_D.Data::total          576                       (Unspecified)
system.caches.L0Cache_Controller.IS_D.ExData |        2207     25.36%     25.36% |        2202     25.30%     50.65% |        2153     24.74%     75.39% |        2142     24.61%    100.00% (Unspecified)
system.caches.L0Cache_Controller.IS_D.ExData::total         8704                       (Unspecified)
system.caches.L0Cache_Controller.IM_D.Inv |           2     28.57%     28.57% |           1     14.29%     42.86% |           3     42.86%     85.71% |           1     14.29%    100.00% (Unspecified)
system.caches.L0Cache_Controller.IM_D.Inv::total            7                       (Unspecified)
system.caches.L0Cache_Controller.IM_D.Data |        8738     25.03%     25.03% |        8745     25.05%     50.08% |        8691     24.90%     74.98% |        8735     25.02%    100.00% (Unspecified)
system.caches.L0Cache_Controller.IM_D.Data::total        34909                       (Unspecified)
system.caches.L0Cache_Controller.S.Load  |           0      0.00%      0.00% |           1     50.00%     50.00% |           1     50.00%    100.00% |           0      0.00%    100.00% (Unspecified)
system.caches.L0Cache_Controller.S.Load::total            2                       (Unspecified)
system.caches.L0Cache_Controller.S.Ifetch |           2     25.00%     25.00% |           3     37.50%     62.50% |           2     25.00%     87.50% |           1     12.50%    100.00% (Unspecified)
system.caches.L0Cache_Controller.S.Ifetch::total            8                       (Unspecified)
system.caches.L0Cache_Controller.S.Store |           4     13.79%     13.79% |           9     31.03%     44.83% |           7     24.14%     68.97% |           9     31.03%    100.00% (Unspecified)
system.caches.L0Cache_Controller.S.Store::total           29                       (Unspecified)
system.caches.L0Cache_Controller.S.Replacement |          53     21.99%     21.99% |          60     24.90%     46.89% |          64     26.56%     73.44% |          64     26.56%    100.00% (Unspecified)
system.caches.L0Cache_Controller.S.Replacement::total          241                       (Unspecified)
system.caches.L0Cache_Controller.S.Inv   |          83     27.21%     27.21% |          56     18.36%     45.57% |          89     29.18%     74.75% |          77     25.25%    100.00% (Unspecified)
system.caches.L0Cache_Controller.S.Inv::total          305                       (Unspecified)
system.caches.L0Cache_Controller.M.Load  |         167     26.30%     26.30% |         154     24.25%     50.55% |         151     23.78%     74.33% |         163     25.67%    100.00% (Unspecified)
system.caches.L0Cache_Controller.M.Load::total          635                       (Unspecified)
system.caches.L0Cache_Controller.M.Ifetch |          21     28.00%     28.00% |          22     29.33%     57.33% |          15     20.00%     77.33% |          17     22.67%    100.00% (Unspecified)
system.caches.L0Cache_Controller.M.Ifetch::total           75                       (Unspecified)
system.caches.L0Cache_Controller.M.Store |        1408     25.38%     25.38% |        1359     24.50%     49.87% |        1387     25.00%     74.87% |        1394     25.13%    100.00% (Unspecified)
system.caches.L0Cache_Controller.M.Store::total         5548                       (Unspecified)
system.caches.L0Cache_Controller.M.Replacement |        5383     25.15%     25.15% |        5416     25.31%     50.46% |        5274     24.64%     75.11% |        5327     24.89%    100.00% (Unspecified)
system.caches.L0Cache_Controller.M.Replacement::total        21400                       (Unspecified)
system.caches.L0Cache_Controller.M.Inv   |        5545     25.02%     25.02% |        5520     24.91%     49.94% |        5555     25.07%     75.01% |        5538     24.99%    100.00% (Unspecified)
system.caches.L0Cache_Controller.M.Inv::total        22158                       (Unspecified)
system.caches.L1Cache_Controller.Load    |        2347     25.29%     25.29% |        2327     25.08%     50.37% |        2313     24.92%     75.29% |        2293     24.71%    100.00% (Unspecified)
system.caches.L1Cache_Controller.Load::total         9280                       (Unspecified)
system.caches.L1Cache_Controller.Store   |        8739     25.03%     25.03% |        8746     25.05%     50.08% |        8691     24.89%     74.98% |        8736     25.02%    100.00% (Unspecified)
system.caches.L1Cache_Controller.Store::total        34912                       (Unspecified)
system.caches.L1Cache_Controller.PutM    |        5383     25.15%     25.15% |        5416     25.31%     50.46% |        5274     24.64%     75.11% |        5327     24.89%    100.00% (Unspecified)
system.caches.L1Cache_Controller.PutM::total        21400                       (Unspecified)
system.caches.L1Cache_Controller.Replacement |        1779     24.70%     24.70% |        1856     25.77%     50.48% |        1803     25.04%     75.52% |        1763     24.48%    100.00% (Unspecified)
system.caches.L1Cache_Controller.Replacement::total         7201                       (Unspecified)
system.caches.L1Cache_Controller.FwdGetM |       14519     25.04%     25.04% |       14463     24.95%     49.99% |       14502     25.01%     75.00% |       14494     25.00%    100.00% (Unspecified)
system.caches.L1Cache_Controller.FwdGetM::total        57978                       (Unspecified)
system.caches.L1Cache_Controller.Inv     |         108     26.60%     26.60% |          84     20.69%     47.29% |         113     27.83%     75.12% |         101     24.88%    100.00% (Unspecified)
system.caches.L1Cache_Controller.Inv::total          406                       (Unspecified)
system.caches.L1Cache_Controller.PutAck  |         649     24.43%     24.43% |         692     26.04%     50.47% |         671     25.25%     75.72% |         645     24.28%    100.00% (Unspecified)
system.caches.L1Cache_Controller.PutAck::total         2657                       (Unspecified)
system.caches.L1Cache_Controller.DataDirNoAcks |         799     24.95%     24.95% |         787     24.57%     49.52% |         818     25.54%     75.05% |         799     24.95%    100.00% (Unspecified)
system.caches.L1Cache_Controller.DataDirNoAcks::total         3203                       (Unspecified)
system.caches.L1Cache_Controller.DataDirAcks |           1      7.14%      7.14% |           5     35.71%     42.86% |           5     35.71%     78.57% |           3     21.43%    100.00% (Unspecified)
system.caches.L1Cache_Controller.DataDirAcks::total           14                       (Unspecified)
system.caches.L1Cache_Controller.DataOwner |        8770     25.06%     25.06% |        8738     24.97%     50.03% |        8728     24.94%     74.97% |        8759     25.03%    100.00% (Unspecified)
system.caches.L1Cache_Controller.DataOwner::total        34995                       (Unspecified)
system.caches.L1Cache_Controller.InvAck  |          84     21.43%     21.43% |         109     27.81%     49.23% |          96     24.49%     73.72% |         103     26.28%    100.00% (Unspecified)
system.caches.L1Cache_Controller.InvAck::total          392                       (Unspecified)
system.caches.L1Cache_Controller.LastInvAck |           1      7.14%      7.14% |           5     35.71%     42.86% |           5     35.71%     78.57% |           3     21.43%    100.00% (Unspecified)
system.caches.L1Cache_Controller.LastInvAck::total           14                       (Unspecified)
system.caches.L1Cache_Controller.WB_Data |        5545     25.02%     25.02% |        5520     24.91%     49.94% |        5555     25.07%     75.01% |        5538     24.99%    100.00% (Unspecified)
system.caches.L1Cache_Controller.WB_Data::total        22158                       (Unspecified)
system.caches.L1Cache_Controller.I.Load  |        1910     25.24%     25.24% |        1890     24.98%     50.22% |        1890     24.98%     75.20% |        1876     24.80%    100.00% (Unspecified)
system.caches.L1Cache_Controller.I.Load::total         7566                       (Unspecified)
system.caches.L1Cache_Controller.I.Store |        7639     25.02%     25.02% |        7613     24.93%     49.95% |        7633     25.00%     74.94% |        7652     25.06%    100.00% (Unspecified)
system.caches.L1Cache_Controller.I.Store::total        30537                       (Unspecified)
system.caches.L1Cache_Controller.IS_D.FwdGetM |           3     27.27%     27.27% |           2     18.18%     45.45% |           3     27.27%     72.73% |           3     27.27%    100.00% (Unspecified)
system.caches.L1Cache_Controller.IS_D.FwdGetM::total           11                       (Unspecified)
system.caches.L1Cache_Controller.IS_D.DataDirNoAcks |         140     24.73%     24.73% |         122     21.55%     46.29% |         158     27.92%     74.20% |         146     25.80%    100.00% (Unspecified)
system.caches.L1Cache_Controller.IS_D.DataDirNoAcks::total          566                       (Unspecified)
system.caches.L1Cache_Controller.IS_D.DataOwner |        1770     25.29%     25.29% |        1768     25.26%     50.54% |        1732     24.74%     75.29% |        1730     24.71%    100.00% (Unspecified)
system.caches.L1Cache_Controller.IS_D.DataOwner::total         7000                       (Unspecified)
system.caches.L1Cache_Controller.IM_AD.FwdGetM |          14     29.17%     29.17% |          15     31.25%     60.42% |          11     22.92%     83.33% |           8     16.67%    100.00% (Unspecified)
system.caches.L1Cache_Controller.IM_AD.FwdGetM::total           48                       (Unspecified)
system.caches.L1Cache_Controller.IM_AD.DataDirNoAcks |         637     25.23%     25.23% |         637     25.23%     50.46% |         632     25.03%     75.49% |         619     24.51%    100.00% (Unspecified)
system.caches.L1Cache_Controller.IM_AD.DataDirNoAcks::total         2525                       (Unspecified)
system.caches.L1Cache_Controller.IM_AD.DataDirAcks |           1      7.14%      7.14% |           5     35.71%     42.86% |           5     35.71%     78.57% |           3     21.43%    100.00% (Unspecified)
system.caches.L1Cache_Controller.IM_AD.DataDirAcks::total           14                       (Unspecified)
system.caches.L1Cache_Controller.IM_AD.DataOwner |        7000     25.00%     25.00% |        6970     24.90%     49.90% |        6996     24.99%     74.89% |        7029     25.11%    100.00% (Unspecified)
system.caches.L1Cache_Controller.IM_AD.DataOwner::total        27995                       (Unspecified)
system.caches.L1Cache_Controller.IM_AD.InvAck |          80     21.28%     21.28% |         103     27.39%     48.67% |          92     24.47%     73.14% |         101     26.86%    100.00% (Unspecified)
system.caches.L1Cache_Controller.IM_AD.InvAck::total          376                       (Unspecified)
system.caches.L1Cache_Controller.IM_A.LastInvAck |           1      7.14%      7.14% |           5     35.71%     42.86% |           5     35.71%     78.57% |           3     21.43%    100.00% (Unspecified)
system.caches.L1Cache_Controller.IM_A.LastInvAck::total           14                       (Unspecified)
system.caches.L1Cache_Controller.S.Load  |           0      0.00%      0.00% |           3     30.00%     30.00% |           2     20.00%     50.00% |           5     50.00%    100.00% (Unspecified)
system.caches.L1Cache_Controller.S.Load::total           10                       (Unspecified)
system.caches.L1Cache_Controller.S.Store |          22     19.64%     19.64% |          28     25.00%     44.64% |          28     25.00%     69.64% |          34     30.36%    100.00% (Unspecified)
system.caches.L1Cache_Controller.S.Store::total          112                       (Unspecified)
system.caches.L1Cache_Controller.S.Replacement |          10     21.28%     21.28% |          10     21.28%     42.55% |          17     36.17%     78.72% |          10     21.28%    100.00% (Unspecified)
system.caches.L1Cache_Controller.S.Replacement::total           47                       (Unspecified)
system.caches.L1Cache_Controller.S.Inv   |         108     26.60%     26.60% |          84     20.69%     47.29% |         113     27.83%     75.12% |         101     24.88%    100.00% (Unspecified)
system.caches.L1Cache_Controller.S.Inv::total          406                       (Unspecified)
system.caches.L1Cache_Controller.SM_AD.DataDirNoAcks |          22     19.64%     19.64% |          28     25.00%     44.64% |          28     25.00%     69.64% |          34     30.36%    100.00% (Unspecified)
system.caches.L1Cache_Controller.SM_AD.DataDirNoAcks::total          112                       (Unspecified)
system.caches.L1Cache_Controller.SM_AD.InvAck |           4     25.00%     25.00% |           6     37.50%     62.50% |           4     25.00%     87.50% |           2     12.50%    100.00% (Unspecified)
system.caches.L1Cache_Controller.SM_AD.InvAck::total           16                       (Unspecified)
system.caches.L1Cache_Controller.M.Load  |         437     25.65%     25.65% |         434     25.47%     51.12% |         421     24.71%     75.82% |         412     24.18%    100.00% (Unspecified)
system.caches.L1Cache_Controller.M.Load::total         1704                       (Unspecified)
system.caches.L1Cache_Controller.M.Store |        1078     25.29%     25.29% |        1105     25.92%     51.21% |        1030     24.16%     75.37% |        1050     24.63%    100.00% (Unspecified)
system.caches.L1Cache_Controller.M.Store::total         4263                       (Unspecified)
system.caches.L1Cache_Controller.M.Replacement |         639     24.48%     24.48% |         682     26.13%     50.61% |         654     25.06%     75.67% |         635     24.33%    100.00% (Unspecified)
system.caches.L1Cache_Controller.M.Replacement::total         2610                       (Unspecified)
system.caches.L1Cache_Controller.M.FwdGetM |        8758     25.07%     25.07% |        8708     24.92%     49.99% |        8717     24.95%     74.93% |        8758     25.07%    100.00% (Unspecified)
system.caches.L1Cache_Controller.M.FwdGetM::total        34941                       (Unspecified)
system.caches.L1Cache_Controller.M_P.PutM |        5363     25.17%     25.17% |        5395     25.32%     50.48% |        5251     24.64%     75.12% |        5301     24.88%    100.00% (Unspecified)
system.caches.L1Cache_Controller.M_P.PutM::total        21310                       (Unspecified)
system.caches.L1Cache_Controller.M_P.Replacement |          95     27.78%     27.78% |          80     23.39%     51.17% |          82     23.98%     75.15% |          85     24.85%    100.00% (Unspecified)
system.caches.L1Cache_Controller.M_P.Replacement::total          342                       (Unspecified)
system.caches.L1Cache_Controller.M_P.FwdGetM |        5468     24.97%     24.97% |        5458     24.93%     49.90% |        5493     25.09%     74.99% |        5477     25.01%    100.00% (Unspecified)
system.caches.L1Cache_Controller.M_P.FwdGetM::total        21896                       (Unspecified)
system.caches.L1Cache_Controller.M_P.WB_Data |           2     20.00%     20.00% |           3     30.00%     50.00% |           3     30.00%     80.00% |           2     20.00%    100.00% (Unspecified)
system.caches.L1Cache_Controller.M_P.WB_Data::total           10                       (Unspecified)
system.caches.L1Cache_Controller.MP_D.PutM |          20     22.22%     22.22% |          21     23.33%     45.56% |          23     25.56%     71.11% |          26     28.89%    100.00% (Unspecified)
system.caches.L1Cache_Controller.MP_D.PutM::total           90                       (Unspecified)
system.caches.L1Cache_Controller.MP_D.Replacement |         100     27.62%     27.62% |          87     24.03%     51.66% |          86     23.76%     75.41% |          89     24.59%    100.00% (Unspecified)
system.caches.L1Cache_Controller.MP_D.Replacement::total          362                       (Unspecified)
system.caches.L1Cache_Controller.MP_D.FwdGetM |         263     25.58%     25.58% |         270     26.26%     51.85% |         265     25.78%     77.63% |         230     22.37%    100.00% (Unspecified)
system.caches.L1Cache_Controller.MP_D.FwdGetM::total         1028                       (Unspecified)
system.caches.L1Cache_Controller.MP_D.WB_Data |        5543     25.03%     25.03% |        5517     24.91%     49.94% |        5552     25.07%     75.00% |        5536     25.00%    100.00% (Unspecified)
system.caches.L1Cache_Controller.MP_D.WB_Data::total        22148                       (Unspecified)
system.caches.L1Cache_Controller.MI_A.Replacement |         920     24.39%     24.39% |         983     26.06%     50.45% |         941     24.95%     75.40% |         928     24.60%    100.00% (Unspecified)
system.caches.L1Cache_Controller.MI_A.Replacement::total         3772                       (Unspecified)
system.caches.L1Cache_Controller.MI_A.FwdGetM |          13     24.07%     24.07% |          10     18.52%     42.59% |          13     24.07%     66.67% |          18     33.33%    100.00% (Unspecified)
system.caches.L1Cache_Controller.MI_A.FwdGetM::total           54                       (Unspecified)
system.caches.L1Cache_Controller.MI_A.PutAck |         626     24.49%     24.49% |         672     26.29%     50.78% |         641     25.08%     75.86% |         617     24.14%    100.00% (Unspecified)
system.caches.L1Cache_Controller.MI_A.PutAck::total         2556                       (Unspecified)
system.caches.L1Cache_Controller.SI_A.Replacement |          14     21.88%     21.88% |          14     21.88%     43.75% |          21     32.81%     76.56% |          15     23.44%    100.00% (Unspecified)
system.caches.L1Cache_Controller.SI_A.Replacement::total           64                       (Unspecified)
system.caches.L1Cache_Controller.SI_A.PutAck |          10     21.28%     21.28% |          10     21.28%     42.55% |          17     36.17%     78.72% |          10     21.28%    100.00% (Unspecified)
system.caches.L1Cache_Controller.SI_A.PutAck::total           47                       (Unspecified)
system.caches.L1Cache_Controller.II_A.Replacement |           1     25.00%     25.00% |           0      0.00%     25.00% |           2     50.00%     75.00% |           1     25.00%    100.00% (Unspecified)
system.caches.L1Cache_Controller.II_A.Replacement::total            4                       (Unspecified)
system.caches.L1Cache_Controller.II_A.PutAck |          13     24.07%     24.07% |          10     18.52%     42.59% |          13     24.07%     66.67% |          18     33.33%    100.00% (Unspecified)
system.caches.L1Cache_Controller.II_A.PutAck::total           54                       (Unspecified)
system.caches.Directory_Controller.GetS          7566      0.00%      0.00% (Unspecified)
system.caches.Directory_Controller.GetM         30646      0.00%      0.00% (Unspecified)
system.caches.Directory_Controller.PutSNotLast            8      0.00%      0.00% (Unspecified)
system.caches.Directory_Controller.PutSLast           39      0.00%      0.00% (Unspecified)
system.caches.Directory_Controller.PutMOwner         2556      0.00%      0.00% (Unspecified)
system.caches.Directory_Controller.PutMNonOwner           54      0.00%      0.00% (Unspecified)
system.caches.Directory_Controller.MemData          102      0.00%      0.00% (Unspecified)
system.caches.Directory_Controller.I.GetM          102      0.00%      0.00% (Unspecified)
system.caches.Directory_Controller.S.GetS           40      0.00%      0.00% (Unspecified)
system.caches.Directory_Controller.S.GetM          486      0.00%      0.00% (Unspecified)
system.caches.Directory_Controller.S.PutSNotLast            8      0.00%      0.00% (Unspecified)
system.caches.Directory_Controller.S.PutSLast           39      0.00%      0.00% (Unspecified)
system.caches.Directory_Controller.M.GetS         7000      0.00%      0.00% (Unspecified)
system.caches.Directory_Controller.M.GetM        27995      0.00%      0.00% (Unspecified)
system.caches.Directory_Controller.M.PutMOwner         2556      0.00%      0.00% (Unspecified)
system.caches.Directory_Controller.M.PutMNonOwner           54      0.00%      0.00% (Unspecified)
system.caches.Directory_Controller.LLCOnly.GetS          526      0.00%      0.00% (Unspecified)
system.caches.Directory_Controller.LLCOnly.GetM         2063      0.00%      0.00% (Unspecified)
system.caches.Directory_Controller.M_m.MemData          102      0.00%      0.00% (Unspecified)
system.caches.RequestType.LD.latency_hist_seqr::bucket_size           64                       (Unspecified)
system.caches.RequestType.LD.latency_hist_seqr::max_bucket          639                       (Unspecified)
system.caches.RequestType.LD.latency_hist_seqr::samples         4870                       (Unspecified)
system.caches.RequestType.LD.latency_hist_seqr::mean    74.625667                       (Unspecified)
system.caches.RequestType.LD.latency_hist_seqr::gmean    40.820885                       (Unspecified)
system.caches.RequestType.LD.latency_hist_seqr::stdev    50.236832                       (Unspecified)
system.caches.RequestType.LD.latency_hist_seqr |        1818     37.33%     37.33% |        2385     48.97%     86.30% |         586     12.03%     98.34% |          68      1.40%     99.73% |          12      0.25%     99.98% |           1      0.02%    100.00% |           0      0.00%    100.00% |           0      0.00%    100.00% |           0      0.00%    100.00% |           0      0.00%    100.00% (Unspecified)
system.caches.RequestType.LD.latency_hist_seqr::total         4870                       (Unspecified)
system.caches.RequestType.LD.hit_latency_hist_seqr::bucket_size            1                       (Unspecified)
system.caches.RequestType.LD.hit_latency_hist_seqr::max_bucket            9                       (Unspecified)
system.caches.RequestType.LD.hit_latency_hist_seqr::samples          637                       (Unspecified)
system.caches.RequestType.LD.hit_latency_hist_seqr::mean            1                       (Unspecified)
system.caches.RequestType.LD.hit_latency_hist_seqr::gmean            1                       (Unspecified)
system.caches.RequestType.LD.hit_latency_hist_seqr |           0      0.00%      0.00% |         637    100.00%    100.00% |           0      0.00%    100.00% |           0      0.00%    100.00% |           0      0.00%    100.00% |           0      0.00%    100.00% |           0      0.00%    100.00% |           0      0.00%    100.00% |           0      0.00%    100.00% |           0      0.00%    100.00% (Unspecified)
system.caches.RequestType.LD.hit_latency_hist_seqr::total          637                       (Unspecified)
system.caches.RequestType.LD.miss_latency_hist_seqr::bucket_size           64                       (Unspecified)
system.caches.RequestType.LD.miss_latency_hist_seqr::max_bucket          639                       (Unspecified)
system.caches.RequestType.LD.miss_latency_hist_seqr::samples         4233                       (Unspecified)
system.caches.RequestType.LD.miss_latency_hist_seqr::mean    85.705174                       (Unspecified)
system.caches.RequestType.LD.miss_latency_hist_seqr::gmean    71.333726                       (Unspecified)
system.caches.RequestType.LD.miss_latency_hist_seqr::stdev    44.327180                       (Unspecified)
system.caches.RequestType.LD.miss_latency_hist_seqr |        1181     27.90%     27.90% |        2385     56.34%     84.24% |         586     13.84%     98.09% |          68      1.61%     99.69% |          12      0.28%     99.98% |           1      0.02%    100.00% |           0      0.00%    100.00% |           0      0.00%    100.00% |           0      0.00%    100.00% |           0      0.00%    100.00% (Unspecified)
system.caches.RequestType.LD.miss_latency_hist_seqr::total         4233                       (Unspecified)
system.caches.RequestType.ST.latency_hist_seqr::bucket_size           64                       (Unspecified)
system.caches.RequestType.ST.latency_hist_seqr::max_bucket          639                       (Unspecified)
system.caches.RequestType.ST.latency_hist_seqr::samples        40457                       (Unspecified)
system.caches.RequestType.ST.latency_hist_seqr::mean    74.918407                       (Unspecified)
system.caches.RequestType.ST.latency_hist_seqr::gmean    39.862709                       (Unspecified)
system.caches.RequestType.ST.latency_hist_seqr::stdev    52.670375                       (Unspecified)
system.caches.RequestType.ST.latency_hist_seqr |       15403     38.07%     38.07% |       19392     47.93%     86.00% |        4787     11.83%     97.84% |         680      1.68%     99.52% |         123      0.30%     99.82% |          50      0.12%     99.95% |           1      0.00%     99.95% |          21      0.05%    100.00% |           0      0.00%    100.00% |           0      0.00%    100.00% (Unspecified)
system.caches.RequestType.ST.latency_hist_seqr::total        40457                       (Unspecified)
system.caches.RequestType.ST.hit_latency_hist_seqr::bucket_size            1                       (Unspecified)
system.caches.RequestType.ST.hit_latency_hist_seqr::max_bucket            9                       (Unspecified)
system.caches.RequestType.ST.hit_latency_hist_seqr::samples         5548                       (Unspecified)
system.caches.RequestType.ST.hit_latency_hist_seqr::mean            1                       (Unspecified)
system.caches.RequestType.ST.hit_latency_hist_seqr::gmean            1                       (Unspecified)
system.caches.RequestType.ST.hit_latency_hist_seqr |           0      0.00%      0.00% |        5548    100.00%    100.00% |           0      0.00%    100.00% |           0      0.00%    100.00% |           0      0.00%    100.00% |           0      0.00%    100.00% |           0      0.00%    100.00% |           0      0.00%    100.00% |           0      0.00%    100.00% |           0      0.00%    100.00% (Unspecified)
system.caches.RequestType.ST.hit_latency_hist_seqr::total         5548                       (Unspecified)
system.caches.RequestType.ST.miss_latency_hist_seqr::bucket_size           64                       (Unspecified)
system.caches.RequestType.ST.miss_latency_hist_seqr::max_bucket          639                       (Unspecified)
system.caches.RequestType.ST.miss_latency_hist_seqr::samples        34909                       (Unspecified)
system.caches.RequestType.ST.miss_latency_hist_seqr::mean    86.666075                       (Unspecified)
system.caches.RequestType.ST.miss_latency_hist_seqr::gmean    71.604594                       (Unspecified)
system.caches.RequestType.ST.miss_latency_hist_seqr::stdev    46.996460                       (Unspecified)
system.caches.RequestType.ST.miss_latency_hist_seqr |        9855     28.23%     28.23% |       19392     55.55%     83.78% |        4787     13.71%     97.49% |         680      1.95%     99.44% |         123      0.35%     99.79% |          50      0.14%     99.94% |           1      0.00%     99.94% |          21      0.06%    100.00% |           0      0.00%    100.00% |           0      0.00%    100.00% (Unspecified)
system.caches.RequestType.ST.miss_latency_hist_seqr::total        34909                       (Unspecified)
system.caches.RequestType.IFETCH.latency_hist_seqr::bucket_size           32                       (Unspecified)
system.caches.RequestType.IFETCH.latency_hist_seqr::max_bucket          319                       (Unspecified)
system.caches.RequestType.IFETCH.latency_hist_seqr::samples         5130                       (Unspecified)
system.caches.RequestType.IFETCH.latency_hist_seqr::mean    74.060624                       (Unspecified)
system.caches.RequestType.IFETCH.latency_hist_seqr::gmean    52.490478                       (Unspecified)
system.caches.RequestType.IFETCH.latency_hist_seqr::stdev    48.484758                       (Unspecified)
system.caches.RequestType.IFETCH.latency_hist_seqr |        1315     25.63%     25.63% |         784     15.28%     40.92% |        1438     28.03%     68.95% |         928     18.09%     87.04% |         450      8.77%     95.81% |         125      2.44%     98.25% |          57      1.11%     99.36% |          27      0.53%     99.88% |           5      0.10%     99.98% |           1      0.02%    100.00% (Unspecified)
system.caches.RequestType.IFETCH.latency_hist_seqr::total         5130                       (Unspecified)
system.caches.RequestType.IFETCH.hit_latency_hist_seqr::bucket_size            1                       (Unspecified)
system.caches.RequestType.IFETCH.hit_latency_hist_seqr::max_bucket            9                       (Unspecified)
system.caches.RequestType.IFETCH.hit_latency_hist_seqr::samples           83                       (Unspecified)
system.caches.RequestType.IFETCH.hit_latency_hist_seqr::mean            1                       (Unspecified)
system.caches.RequestType.IFETCH.hit_latency_hist_seqr::gmean            1                       (Unspecified)
system.caches.RequestType.IFETCH.hit_latency_hist_seqr |           0      0.00%      0.00% |          83    100.00%    100.00% |           0      0.00%    100.00% |           0      0.00%    100.00% |           0      0.00%    100.00% |           0      0.00%    100.00% |           0      0.00%    100.00% |           0      0.00%    100.00% |           0      0.00%    100.00% |           0      0.00%    100.00% (Unspecified)
system.caches.RequestType.IFETCH.hit_latency_hist_seqr::total           83                       (Unspecified)
system.caches.RequestType.IFETCH.miss_latency_hist_seqr::bucket_size           32                       (Unspecified)
system.caches.RequestType.IFETCH.miss_latency_hist_seqr::max_bucket          319                       (Unspecified)
system.caches.RequestType.IFETCH.miss_latency_hist_seqr::samples         5047                       (Unspecified)
system.caches.RequestType.IFETCH.miss_latency_hist_seqr::mean    75.262136                       (Unspecified)
system.caches.RequestType.IFETCH.miss_latency_hist_seqr::gmean    56.023207                       (Unspecified)
system.caches.RequestType.IFETCH.miss_latency_hist_seqr::stdev    47.960340                       (Unspecified)
system.caches.RequestType.IFETCH.miss_latency_hist_seqr |        1232     24.41%     24.41% |         784     15.53%     39.94% |        1438     28.49%     68.44% |         928     18.39%     86.82% |         450      8.92%     95.74% |         125      2.48%     98.22% |          57      1.13%     99.35% |          27      0.53%     99.88% |           5      0.10%     99.98% |           1      0.02%    100.00% (Unspecified)
system.caches.RequestType.IFETCH.miss_latency_hist_seqr::total         5047                       (Unspecified)
system.caches.controllers0.DCache.m_demand_hits            0                       # Number of cache demand hits (Unspecified)
system.caches.controllers0.DCache.m_demand_misses            0                       # Number of cache demand misses (Unspecified)
system.caches.controllers0.DCache.m_demand_accesses            0                       # Number of cache demand accesses (Unspecified)
system.caches.controllers0.ICache.m_demand_hits            0                       # Number of cache demand hits (Unspecified)
system.caches.controllers0.ICache.m_demand_misses            0                       # Number of cache demand misses (Unspecified)
system.caches.controllers0.ICache.m_demand_accesses            0                       # Number of cache demand accesses (Unspecified)
system.caches.controllers0.forwardFromL1.m_buf_msgs     0.006064                       # Average number of messages in buffer (Unspecified)
system.caches.controllers0.forwardFromL1.m_stall_time  5049.448803                       # Average number of cycles messages are stalled in this MB (Unspecified)
system.caches.controllers0.forwardFromL1.m_stall_count            2                       # Number of times messages were stalled (Unspecified)
system.caches.controllers0.mandatoryQueue.m_buf_msgs     0.026102                       # Average number of messages in buffer (Unspecified)
system.caches.controllers0.mandatoryQueue.m_stall_time   999.997909                       # Average number of cycles messages are stalled in this MB (Unspecified)
system.caches.controllers0.power_state.pwrStateResidencyTicks::UNDEFINED    956282001                       # Cumulative time (in ticks) in various power states (Tick)
system.caches.controllers0.requestToL1.m_buf_msgs     0.017222                       # Average number of messages in buffer (Unspecified)
system.caches.controllers0.requestToL1.m_stall_time   999.996863                       # Average number of cycles messages are stalled in this MB (Unspecified)
system.caches.controllers0.responseFromL1.m_buf_msgs     0.011592                       # Average number of messages in buffer (Unspecified)
system.caches.controllers0.responseFromL1.m_stall_time  4997.537337                       # Average number of cycles messages are stalled in this MB (Unspecified)
system.caches.controllers0.responseToL1.m_buf_msgs     0.005798                       # Average number of messages in buffer (Unspecified)
system.caches.controllers0.responseToL1.m_stall_time   998.518220                       # Average number of cycles messages are stalled in this MB (Unspecified)
system.caches.controllers0.xyzStatsObject.power_state.pwrStateResidencyTicks::UNDEFINED    956282001                       # Cumulative time (in ticks) in various power states (Tick)
system.caches.controllers1.DCache.m_demand_hits            0                       # Number of cache demand hits (Unspecified)
system.caches.controllers1.DCache.m_demand_misses            0                       # Number of cache demand misses (Unspecified)
system.caches.controllers1.DCache.m_demand_accesses            0                       # Number of cache demand accesses (Unspecified)
system.caches.controllers1.ICache.m_demand_hits            0                       # Number of cache demand hits (Unspecified)
system.caches.controllers1.ICache.m_demand_misses            0                       # Number of cache demand misses (Unspecified)
system.caches.controllers1.ICache.m_demand_accesses            0                       # Number of cache demand accesses (Unspecified)
system.caches.controllers1.forwardFromL1.m_buf_msgs     0.006097                       # Average number of messages in buffer (Unspecified)
system.caches.controllers1.forwardFromL1.m_stall_time  5041.202281                       # Average number of cycles messages are stalled in this MB (Unspecified)
system.caches.controllers1.forwardFromL1.m_stall_count            3                       # Number of times messages were stalled (Unspecified)
system.caches.controllers1.mandatoryQueue.m_buf_msgs     0.025965                       # Average number of messages in buffer (Unspecified)
system.caches.controllers1.mandatoryQueue.m_stall_time   999.997909                       # Average number of cycles messages are stalled in this MB (Unspecified)
system.caches.controllers1.power_state.pwrStateResidencyTicks::UNDEFINED    956282001                       # Cumulative time (in ticks) in various power states (Tick)
system.caches.controllers1.requestToL1.m_buf_msgs     0.017243                       # Average number of messages in buffer (Unspecified)
system.caches.controllers1.requestToL1.m_stall_time   999.996863                       # Average number of cycles messages are stalled in this MB (Unspecified)
system.caches.controllers1.responseFromL1.m_buf_msgs     0.011578                       # Average number of messages in buffer (Unspecified)
system.caches.controllers1.responseFromL1.m_stall_time  4999.309827                       # Average number of cycles messages are stalled in this MB (Unspecified)
system.caches.controllers1.responseToL1.m_buf_msgs     0.005772                       # Average number of messages in buffer (Unspecified)
system.caches.controllers1.responseToL1.m_stall_time   994.661617                       # Average number of cycles messages are stalled in this MB (Unspecified)
system.caches.controllers1.xyzStatsObject.power_state.pwrStateResidencyTicks::UNDEFINED    956282001                       # Cumulative time (in ticks) in various power states (Tick)
system.caches.controllers2.DCache.m_demand_hits            0                       # Number of cache demand hits (Unspecified)
system.caches.controllers2.DCache.m_demand_misses            0                       # Number of cache demand misses (Unspecified)
system.caches.controllers2.DCache.m_demand_accesses            0                       # Number of cache demand accesses (Unspecified)
system.caches.controllers2.ICache.m_demand_hits            0                       # Number of cache demand hits (Unspecified)
system.caches.controllers2.ICache.m_demand_misses            0                       # Number of cache demand misses (Unspecified)
system.caches.controllers2.ICache.m_demand_accesses            0                       # Number of cache demand accesses (Unspecified)
system.caches.controllers2.forwardFromL1.m_buf_msgs     0.006178                       # Average number of messages in buffer (Unspecified)
system.caches.controllers2.forwardFromL1.m_stall_time  5080.696907                       # Average number of cycles messages are stalled in this MB (Unspecified)
system.caches.controllers2.forwardFromL1.m_stall_count            3                       # Number of times messages were stalled (Unspecified)
system.caches.controllers2.mandatoryQueue.m_buf_msgs     0.025862                       # Average number of messages in buffer (Unspecified)
system.caches.controllers2.mandatoryQueue.m_stall_time   999.997909                       # Average number of cycles messages are stalled in this MB (Unspecified)
system.caches.controllers2.power_state.pwrStateResidencyTicks::UNDEFINED    956282001                       # Cumulative time (in ticks) in various power states (Tick)
system.caches.controllers2.requestToL1.m_buf_msgs     0.017022                       # Average number of messages in buffer (Unspecified)
system.caches.controllers2.requestToL1.m_stall_time   999.996863                       # Average number of cycles messages are stalled in this MB (Unspecified)
system.caches.controllers2.responseFromL1.m_buf_msgs     0.011507                       # Average number of messages in buffer (Unspecified)
system.caches.controllers2.responseFromL1.m_stall_time  4998.718997                       # Average number of cycles messages are stalled in this MB (Unspecified)
system.caches.controllers2.responseToL1.m_buf_msgs     0.005809                       # Average number of messages in buffer (Unspecified)
system.caches.controllers2.responseToL1.m_stall_time   998.774420                       # Average number of cycles messages are stalled in this MB (Unspecified)
system.caches.controllers2.xyzStatsObject.power_state.pwrStateResidencyTicks::UNDEFINED    956282001                       # Cumulative time (in ticks) in various power states (Tick)
system.caches.controllers3.DCache.m_demand_hits            0                       # Number of cache demand hits (Unspecified)
system.caches.controllers3.DCache.m_demand_misses            0                       # Number of cache demand misses (Unspecified)
system.caches.controllers3.DCache.m_demand_accesses            0                       # Number of cache demand accesses (Unspecified)
system.caches.controllers3.ICache.m_demand_hits            0                       # Number of cache demand hits (Unspecified)
system.caches.controllers3.ICache.m_demand_misses            0                       # Number of cache demand misses (Unspecified)
system.caches.controllers3.ICache.m_demand_accesses            0                       # Number of cache demand accesses (Unspecified)
system.caches.controllers3.forwardFromL1.m_buf_msgs     0.006086                       # Average number of messages in buffer (Unspecified)
system.caches.controllers3.forwardFromL1.m_stall_time  5060.045049                       # Average number of cycles messages are stalled in this MB (Unspecified)
system.caches.controllers3.forwardFromL1.m_stall_count            2                       # Number of times messages were stalled (Unspecified)
system.caches.controllers3.mandatoryQueue.m_buf_msgs     0.025952                       # Average number of messages in buffer (Unspecified)
system.caches.controllers3.mandatoryQueue.m_stall_time   999.997909                       # Average number of cycles messages are stalled in this MB (Unspecified)
system.caches.controllers3.power_state.pwrStateResidencyTicks::UNDEFINED    956282001                       # Cumulative time (in ticks) in various power states (Tick)
system.caches.controllers3.requestToL1.m_buf_msgs     0.017104                       # Average number of messages in buffer (Unspecified)
system.caches.controllers3.requestToL1.m_stall_time   999.996863                       # Average number of cycles messages are stalled in this MB (Unspecified)
system.caches.controllers3.responseFromL1.m_buf_msgs     0.011532                       # Average number of messages in buffer (Unspecified)
system.caches.controllers3.responseFromL1.m_stall_time  4998.128167                       # Average number of cycles messages are stalled in this MB (Unspecified)
system.caches.controllers3.responseToL1.m_buf_msgs     0.005791                       # Average number of messages in buffer (Unspecified)
system.caches.controllers3.responseToL1.m_stall_time   999.147741                       # Average number of cycles messages are stalled in this MB (Unspecified)
system.caches.controllers3.xyzStatsObject.power_state.pwrStateResidencyTicks::UNDEFINED    956282001                       # Cumulative time (in ticks) in various power states (Tick)
system.caches.controllers4.cacheMemory.m_demand_hits            0                       # Number of cache demand hits (Unspecified)
system.caches.controllers4.cacheMemory.m_demand_misses            0                       # Number of cache demand misses (Unspecified)
system.caches.controllers4.cacheMemory.m_demand_accesses            0                       # Number of cache demand accesses (Unspecified)
system.caches.controllers4.forwardFromDir.m_buf_msgs     0.067335                       # Average number of messages in buffer (Unspecified)
system.caches.controllers4.forwardFromDir.m_stall_time 10529.440070                       # Average number of cycles messages are stalled in this MB (Unspecified)
system.caches.controllers4.forwardFromDir.m_stall_count         5748                       # Number of times messages were stalled (Unspecified)
system.caches.controllers4.forwardToL0.m_buf_msgs     0.005941                       # Average number of messages in buffer (Unspecified)
system.caches.controllers4.forwardToL0.m_stall_time   998.523448                       # Average number of cycles messages are stalled in this MB (Unspecified)
system.caches.controllers4.power_state.pwrStateResidencyTicks::UNDEFINED    956282001                       # Cumulative time (in ticks) in various power states (Tick)
system.caches.controllers4.requestFromL0.m_buf_msgs     0.060760                       # Average number of messages in buffer (Unspecified)
system.caches.controllers4.requestFromL0.m_stall_time 12062.851738                       # Average number of cycles messages are stalled in this MB (Unspecified)
system.caches.controllers4.requestFromL0.m_stall_count         1035                       # Number of times messages were stalled (Unspecified)
system.caches.controllers4.requestToDir.m_buf_msgs     0.010687                       # Average number of messages in buffer (Unspecified)
system.caches.controllers4.requestToDir.m_stall_time   999.991634                       # Average number of cycles messages are stalled in this MB (Unspecified)
system.caches.controllers4.responseFromDirOrSibling.m_buf_msgs     0.010096                       # Average number of messages in buffer (Unspecified)
system.caches.controllers4.responseFromDirOrSibling.m_stall_time  5563.467679                       # Average number of cycles messages are stalled in this MB (Unspecified)
system.caches.controllers4.responseFromL0.m_buf_msgs     0.005798                       # Average number of messages in buffer (Unspecified)
system.caches.controllers4.responseFromL0.m_stall_time  4994.195227                       # Average number of cycles messages are stalled in this MB (Unspecified)
system.caches.controllers4.responseToDirOrSibling.m_buf_msgs     0.009285                       # Average number of messages in buffer (Unspecified)
system.caches.controllers4.responseToDirOrSibling.m_stall_time   998.512991                       # Average number of cycles messages are stalled in this MB (Unspecified)
system.caches.controllers4.responseToL0.m_buf_msgs     0.011592                       # Average number of messages in buffer (Unspecified)
system.caches.controllers4.responseToL0.m_stall_time   999.511650                       # Average number of cycles messages are stalled in this MB (Unspecified)
system.caches.controllers4.xyzStatsObject.power_state.pwrStateResidencyTicks::UNDEFINED    956282001                       # Cumulative time (in ticks) in various power states (Tick)
system.caches.controllers5.cacheMemory.m_demand_hits            0                       # Number of cache demand hits (Unspecified)
system.caches.controllers5.cacheMemory.m_demand_misses            0                       # Number of cache demand misses (Unspecified)
system.caches.controllers5.cacheMemory.m_demand_accesses            0                       # Number of cache demand accesses (Unspecified)
system.caches.controllers5.forwardFromDir.m_buf_msgs     0.067270                       # Average number of messages in buffer (Unspecified)
system.caches.controllers5.forwardFromDir.m_stall_time 10557.405649                       # Average number of cycles messages are stalled in this MB (Unspecified)
system.caches.controllers5.forwardFromDir.m_stall_count         5745                       # Number of times messages were stalled (Unspecified)
system.caches.controllers5.forwardToL0.m_buf_msgs     0.005889                       # Average number of messages in buffer (Unspecified)
system.caches.controllers5.forwardToL0.m_stall_time   994.666845                       # Average number of cycles messages are stalled in this MB (Unspecified)
system.caches.controllers5.power_state.pwrStateResidencyTicks::UNDEFINED    956282001                       # Cumulative time (in ticks) in various power states (Tick)
system.caches.controllers5.requestFromL0.m_buf_msgs     0.063652                       # Average number of messages in buffer (Unspecified)
system.caches.controllers5.requestFromL0.m_stall_time 12414.099591                       # Average number of cycles messages are stalled in this MB (Unspecified)
system.caches.controllers5.requestFromL0.m_stall_count         1084                       # Number of times messages were stalled (Unspecified)
system.caches.controllers5.requestToDir.m_buf_msgs     0.010690                       # Average number of messages in buffer (Unspecified)
system.caches.controllers5.requestToDir.m_stall_time   999.991634                       # Average number of cycles messages are stalled in this MB (Unspecified)
system.caches.controllers5.responseFromDirOrSibling.m_buf_msgs     0.010085                       # Average number of messages in buffer (Unspecified)
system.caches.controllers5.responseFromDirOrSibling.m_stall_time  5574.679853                       # Average number of cycles messages are stalled in this MB (Unspecified)
system.caches.controllers5.responseFromL0.m_buf_msgs     0.005772                       # Average number of messages in buffer (Unspecified)
system.caches.controllers5.responseFromL0.m_stall_time  4976.370987                       # Average number of cycles messages are stalled in this MB (Unspecified)
system.caches.controllers5.responseToDirOrSibling.m_buf_msgs     0.009204                       # Average number of messages in buffer (Unspecified)
system.caches.controllers5.responseToDirOrSibling.m_stall_time   997.238262                       # Average number of cycles messages are stalled in this MB (Unspecified)
system.caches.controllers5.responseToL0.m_buf_msgs     0.011578                       # Average number of messages in buffer (Unspecified)
system.caches.controllers5.responseToL0.m_stall_time   999.866148                       # Average number of cycles messages are stalled in this MB (Unspecified)
system.caches.controllers5.xyzStatsObject.power_state.pwrStateResidencyTicks::UNDEFINED    956282001                       # Cumulative time (in ticks) in various power states (Tick)
system.caches.controllers6.cacheMemory.m_demand_hits            0                       # Number of cache demand hits (Unspecified)
system.caches.controllers6.cacheMemory.m_demand_misses            0                       # Number of cache demand misses (Unspecified)
system.caches.controllers6.cacheMemory.m_demand_accesses            0                       # Number of cache demand accesses (Unspecified)
system.caches.controllers6.forwardFromDir.m_buf_msgs     0.067592                       # Average number of messages in buffer (Unspecified)
system.caches.controllers6.forwardFromDir.m_stall_time 10519.188889                       # Average number of cycles messages are stalled in this MB (Unspecified)
system.caches.controllers6.forwardFromDir.m_stall_count         5772                       # Number of times messages were stalled (Unspecified)
system.caches.controllers6.forwardToL0.m_buf_msgs     0.005966                       # Average number of messages in buffer (Unspecified)
system.caches.controllers6.forwardToL0.m_stall_time   998.779649                       # Average number of cycles messages are stalled in this MB (Unspecified)
system.caches.controllers6.power_state.pwrStateResidencyTicks::UNDEFINED    956282001                       # Cumulative time (in ticks) in various power states (Tick)
system.caches.controllers6.requestFromL0.m_buf_msgs     0.063208                       # Average number of messages in buffer (Unspecified)
system.caches.controllers6.requestFromL0.m_stall_time 12225.037160                       # Average number of cycles messages are stalled in this MB (Unspecified)
system.caches.controllers6.requestFromL0.m_stall_count         1050                       # Number of times messages were stalled (Unspecified)
system.caches.controllers6.requestToDir.m_buf_msgs     0.010689                       # Average number of messages in buffer (Unspecified)
system.caches.controllers6.requestToDir.m_stall_time   999.991634                       # Average number of cycles messages are stalled in this MB (Unspecified)
system.caches.controllers6.responseFromDirOrSibling.m_buf_msgs     0.010093                       # Average number of messages in buffer (Unspecified)
system.caches.controllers6.responseFromDirOrSibling.m_stall_time  5575.728706                       # Average number of cycles messages are stalled in this MB (Unspecified)
system.caches.controllers6.responseFromL0.m_buf_msgs     0.005809                       # Average number of messages in buffer (Unspecified)
system.caches.controllers6.responseFromL0.m_stall_time  4995.105000                       # Average number of cycles messages are stalled in this MB (Unspecified)
system.caches.controllers6.responseToDirOrSibling.m_buf_msgs     0.009247                       # Average number of messages in buffer (Unspecified)
system.caches.controllers6.responseToDirOrSibling.m_stall_time   998.769192                       # Average number of cycles messages are stalled in this MB (Unspecified)
system.caches.controllers6.responseToL0.m_buf_msgs     0.011507                       # Average number of messages in buffer (Unspecified)
system.caches.controllers6.responseToL0.m_stall_time   999.747982                       # Average number of cycles messages are stalled in this MB (Unspecified)
system.caches.controllers6.xyzStatsObject.power_state.pwrStateResidencyTicks::UNDEFINED    956282001                       # Cumulative time (in ticks) in various power states (Tick)
system.caches.controllers7.cacheMemory.m_demand_hits            0                       # Number of cache demand hits (Unspecified)
system.caches.controllers7.cacheMemory.m_demand_misses            0                       # Number of cache demand misses (Unspecified)
system.caches.controllers7.cacheMemory.m_demand_accesses            0                       # Number of cache demand accesses (Unspecified)
system.caches.controllers7.forwardFromDir.m_buf_msgs     0.067378                       # Average number of messages in buffer (Unspecified)
system.caches.controllers7.forwardFromDir.m_stall_time 10632.525770                       # Average number of cycles messages are stalled in this MB (Unspecified)
system.caches.controllers7.forwardFromDir.m_stall_count         5718                       # Number of times messages were stalled (Unspecified)
system.caches.controllers7.forwardToL0.m_buf_msgs     0.005932                       # Average number of messages in buffer (Unspecified)
system.caches.controllers7.forwardToL0.m_stall_time   999.152970                       # Average number of cycles messages are stalled in this MB (Unspecified)
system.caches.controllers7.power_state.pwrStateResidencyTicks::UNDEFINED    956282001                       # Cumulative time (in ticks) in various power states (Tick)
system.caches.controllers7.requestFromL0.m_buf_msgs     0.061848                       # Average number of messages in buffer (Unspecified)
system.caches.controllers7.requestFromL0.m_stall_time 12140.175362                       # Average number of cycles messages are stalled in this MB (Unspecified)
system.caches.controllers7.requestFromL0.m_stall_count         1033                       # Number of times messages were stalled (Unspecified)
system.caches.controllers7.requestToDir.m_buf_msgs     0.010674                       # Average number of messages in buffer (Unspecified)
system.caches.controllers7.requestToDir.m_stall_time   999.991634                       # Average number of cycles messages are stalled in this MB (Unspecified)
system.caches.controllers7.responseFromDirOrSibling.m_buf_msgs     0.010109                       # Average number of messages in buffer (Unspecified)
system.caches.controllers7.responseFromDirOrSibling.m_stall_time  5570.620381                       # Average number of cycles messages are stalled in this MB (Unspecified)
system.caches.controllers7.responseFromL0.m_buf_msgs     0.005791                       # Average number of messages in buffer (Unspecified)
system.caches.controllers7.responseFromL0.m_stall_time  4997.777852                       # Average number of cycles messages are stalled in this MB (Unspecified)
system.caches.controllers7.responseToDirOrSibling.m_buf_msgs     0.009283                       # Average number of messages in buffer (Unspecified)
system.caches.controllers7.responseToDirOrSibling.m_stall_time   999.142512                       # Average number of cycles messages are stalled in this MB (Unspecified)
system.caches.controllers7.responseToL0.m_buf_msgs     0.011532                       # Average number of messages in buffer (Unspecified)
system.caches.controllers7.responseToL0.m_stall_time   999.629816                       # Average number of cycles messages are stalled in this MB (Unspecified)
system.caches.controllers7.xyzStatsObject.power_state.pwrStateResidencyTicks::UNDEFINED    956282001                       # Cumulative time (in ticks) in various power states (Tick)
system.caches.controllers8.cacheMemory.m_demand_hits            0                       # Number of cache demand hits (Unspecified)
system.caches.controllers8.cacheMemory.m_demand_misses            0                       # Number of cache demand misses (Unspecified)
system.caches.controllers8.cacheMemory.m_demand_accesses            0                       # Number of cache demand accesses (Unspecified)
system.caches.controllers8.forwardToCache.m_buf_msgs     0.039882                       # Average number of messages in buffer (Unspecified)
system.caches.controllers8.forwardToCache.m_stall_time   999.159244                       # Average number of cycles messages are stalled in this MB (Unspecified)
system.caches.controllers8.power_state.pwrStateResidencyTicks::UNDEFINED    956282001                       # Cumulative time (in ticks) in various power states (Tick)
system.caches.controllers8.requestFromCache.m_not_avail_count         5220                       # Number of times this buffer did not have N slots available (Unspecified)
system.caches.controllers8.requestFromCache.m_buf_msgs     0.042737                       # Average number of messages in buffer (Unspecified)
system.caches.controllers8.requestFromCache.m_stall_time 67226.829587                       # Average number of cycles messages are stalled in this MB (Unspecified)
system.caches.controllers8.requestFromCache.m_occupancy     0.042737                       # Average occupancy of buffer capacity (Unspecified)
system.caches.controllers8.requestToMemory.m_buf_msgs     0.000107                       # Average number of messages in buffer (Unspecified)
system.caches.controllers8.requestToMemory.m_stall_time   999.986406                       # Average number of cycles messages are stalled in this MB (Unspecified)
system.caches.controllers8.responseFromMemory.m_buf_msgs     0.000107                       # Average number of messages in buffer (Unspecified)
system.caches.controllers8.responseFromMemory.m_stall_time   999.880788                       # Average number of cycles messages are stalled in this MB (Unspecified)
system.caches.controllers8.responseToCache.m_buf_msgs     0.030277                       # Average number of messages in buffer (Unspecified)
system.caches.controllers8.responseToCache.m_stall_time  8998.842392                       # Average number of cycles messages are stalled in this MB (Unspecified)
system.caches.controllers8.xyzCacheMemory.m_demand_hits            0                       # Number of cache demand hits (Unspecified)
system.caches.controllers8.xyzCacheMemory.m_demand_misses            0                       # Number of cache demand misses (Unspecified)
system.caches.controllers8.xyzCacheMemory.m_demand_accesses            0                       # Number of cache demand accesses (Unspecified)
system.caches.controllers8.xyzStatsObject.power_state.pwrStateResidencyTicks::UNDEFINED    956282001                       # Cumulative time (in ticks) in various power states (Tick)
system.caches.network.msg_count.Control        287215                       (Unspecified)
system.caches.network.msg_byte.Control        2297720                       (Unspecified)
system.caches.network.msg_count.Data           250908                       (Unspecified)
system.caches.network.msg_byte.Data          18065376                       (Unspecified)
system.caches.network.msg_count.Response_Data         6230                       (Unspecified)
system.caches.network.msg_byte.Response_Data       448560                       (Unspecified)
system.caches.network.int_link_buffers102.m_buf_msgs     0.005966                       # Average number of messages in buffer (Unspecified)
system.caches.network.int_link_buffers102.m_stall_time  3030.799492                       # Average number of cycles messages are stalled in this MB (Unspecified)
system.caches.network.int_link_buffers103.m_buf_msgs     0.011507                       # Average number of messages in buffer (Unspecified)
system.caches.network.int_link_buffers103.m_stall_time  2999.237673                       # Average number of cycles messages are stalled in this MB (Unspecified)
system.caches.network.int_link_buffers107.m_buf_msgs     0.003085                       # Average number of messages in buffer (Unspecified)
system.caches.network.int_link_buffers107.m_stall_time  2996.301300                       # Average number of cycles messages are stalled in this MB (Unspecified)
system.caches.network.int_link_buffers11.m_buf_msgs     0.017243                       # Average number of messages in buffer (Unspecified)
system.caches.network.int_link_buffers11.m_stall_time  4866.741188                       # Average number of cycles messages are stalled in this MB (Unspecified)
system.caches.network.int_link_buffers114.m_buf_msgs     0.003057                       # Average number of messages in buffer (Unspecified)
system.caches.network.int_link_buffers114.m_stall_time  2991.736747                       # Average number of cycles messages are stalled in this MB (Unspecified)
system.caches.network.int_link_buffers12.m_buf_msgs     0.005772                       # Average number of messages in buffer (Unspecified)
system.caches.network.int_link_buffers12.m_stall_time  2986.760182                       # Average number of cycles messages are stalled in this MB (Unspecified)
system.caches.network.int_link_buffers121.m_buf_msgs     0.003106                       # Average number of messages in buffer (Unspecified)
system.caches.network.int_link_buffers121.m_stall_time  2991.620673                       # Average number of cycles messages are stalled in this MB (Unspecified)
system.caches.network.int_link_buffers126.m_buf_msgs     0.623324                       # Average number of messages in buffer (Unspecified)
system.caches.network.int_link_buffers126.m_stall_time 63771.187845                       # Average number of cycles messages are stalled in this MB (Unspecified)
system.caches.network.int_link_buffers137.m_buf_msgs     0.005932                       # Average number of messages in buffer (Unspecified)
system.caches.network.int_link_buffers137.m_stall_time  3028.242715                       # Average number of cycles messages are stalled in this MB (Unspecified)
system.caches.network.int_link_buffers138.m_buf_msgs     0.011532                       # Average number of messages in buffer (Unspecified)
system.caches.network.int_link_buffers138.m_stall_time  2998.883175                       # Average number of cycles messages are stalled in this MB (Unspecified)
system.caches.network.int_link_buffers142.m_buf_msgs     0.003208                       # Average number of messages in buffer (Unspecified)
system.caches.network.int_link_buffers142.m_stall_time  2997.421263                       # Average number of cycles messages are stalled in this MB (Unspecified)
system.caches.network.int_link_buffers149.m_buf_msgs     0.003090                       # Average number of messages in buffer (Unspecified)
system.caches.network.int_link_buffers149.m_stall_time  2991.231666                       # Average number of cycles messages are stalled in this MB (Unspecified)
system.caches.network.int_link_buffers156.m_buf_msgs     0.002984                       # Average number of messages in buffer (Unspecified)
system.caches.network.int_link_buffers156.m_stall_time  2992.505349                       # Average number of cycles messages are stalled in this MB (Unspecified)
system.caches.network.int_link_buffers161.m_buf_msgs     0.623286                       # Average number of messages in buffer (Unspecified)
system.caches.network.int_link_buffers161.m_stall_time 63798.296967                       # Average number of cycles messages are stalled in this MB (Unspecified)
system.caches.network.int_link_buffers169.m_buf_msgs     0.009964                       # Average number of messages in buffer (Unspecified)
system.caches.network.int_link_buffers169.m_stall_time  3016.418797                       # Average number of cycles messages are stalled in this MB (Unspecified)
system.caches.network.int_link_buffers170.m_buf_msgs     0.000837                       # Average number of messages in buffer (Unspecified)
system.caches.network.int_link_buffers170.m_stall_time 10994.662662                       # Average number of cycles messages are stalled in this MB (Unspecified)
system.caches.network.int_link_buffers176.m_buf_msgs     0.009928                       # Average number of messages in buffer (Unspecified)
system.caches.network.int_link_buffers176.m_stall_time  3010.906825                       # Average number of cycles messages are stalled in this MB (Unspecified)
system.caches.network.int_link_buffers177.m_buf_msgs     0.000828                       # Average number of messages in buffer (Unspecified)
system.caches.network.int_link_buffers177.m_stall_time 10998.562140                       # Average number of cycles messages are stalled in this MB (Unspecified)
system.caches.network.int_link_buffers18.m_buf_msgs     0.017022                       # Average number of messages in buffer (Unspecified)
system.caches.network.int_link_buffers18.m_stall_time  4846.122793                       # Average number of cycles messages are stalled in this MB (Unspecified)
system.caches.network.int_link_buffers183.m_buf_msgs     0.009949                       # Average number of messages in buffer (Unspecified)
system.caches.network.int_link_buffers183.m_stall_time  3018.792574                       # Average number of cycles messages are stalled in this MB (Unspecified)
system.caches.network.int_link_buffers184.m_buf_msgs     0.000861                       # Average number of messages in buffer (Unspecified)
system.caches.network.int_link_buffers184.m_stall_time 10997.262314                       # Average number of cycles messages are stalled in this MB (Unspecified)
system.caches.network.int_link_buffers19.m_buf_msgs     0.005809                       # Average number of messages in buffer (Unspecified)
system.caches.network.int_link_buffers19.m_stall_time  2997.570800                       # Average number of cycles messages are stalled in this MB (Unspecified)
system.caches.network.int_link_buffers190.m_buf_msgs     0.009957                       # Average number of messages in buffer (Unspecified)
system.caches.network.int_link_buffers190.m_stall_time  3019.556993                       # Average number of cycles messages are stalled in this MB (Unspecified)
system.caches.network.int_link_buffers191.m_buf_msgs     0.000839                       # Average number of messages in buffer (Unspecified)
system.caches.network.int_link_buffers191.m_stall_time 10995.962488                       # Average number of cycles messages are stalled in this MB (Unspecified)
system.caches.network.int_link_buffers25.m_buf_msgs     0.017104                       # Average number of messages in buffer (Unspecified)
system.caches.network.int_link_buffers25.m_stall_time  4858.981978                       # Average number of cycles messages are stalled in this MB (Unspecified)
system.caches.network.int_link_buffers26.m_buf_msgs     0.005791                       # Average number of messages in buffer (Unspecified)
system.caches.network.int_link_buffers26.m_stall_time  2998.334173                       # Average number of cycles messages are stalled in this MB (Unspecified)
system.caches.network.int_link_buffers32.m_buf_msgs     0.005941                       # Average number of messages in buffer (Unspecified)
system.caches.network.int_link_buffers32.m_stall_time  3018.075212                       # Average number of cycles messages are stalled in this MB (Unspecified)
system.caches.network.int_link_buffers33.m_buf_msgs     0.011592                       # Average number of messages in buffer (Unspecified)
system.caches.network.int_link_buffers33.m_stall_time  2998.528677                       # Average number of cycles messages are stalled in this MB (Unspecified)
system.caches.network.int_link_buffers37.m_buf_msgs     0.003110                       # Average number of messages in buffer (Unspecified)
system.caches.network.int_link_buffers37.m_stall_time  2988.687437                       # Average number of cycles messages are stalled in this MB (Unspecified)
system.caches.network.int_link_buffers4.m_buf_msgs     0.017222                       # Average number of messages in buffer (Unspecified)
system.caches.network.int_link_buffers4.m_stall_time  4861.867102                       # Average number of cycles messages are stalled in this MB (Unspecified)
system.caches.network.int_link_buffers44.m_buf_msgs     0.003127                       # Average number of messages in buffer (Unspecified)
system.caches.network.int_link_buffers44.m_stall_time  2993.640997                       # Average number of cycles messages are stalled in this MB (Unspecified)
system.caches.network.int_link_buffers5.m_buf_msgs     0.005798                       # Average number of messages in buffer (Unspecified)
system.caches.network.int_link_buffers5.m_stall_time  2996.752004                       # Average number of cycles messages are stalled in this MB (Unspecified)
system.caches.network.int_link_buffers51.m_buf_msgs     0.003048                       # Average number of messages in buffer (Unspecified)
system.caches.network.int_link_buffers51.m_stall_time  2995.532699                       # Average number of cycles messages are stalled in this MB (Unspecified)
system.caches.network.int_link_buffers56.m_buf_msgs     0.621648                       # Average number of messages in buffer (Unspecified)
system.caches.network.int_link_buffers56.m_stall_time 63613.785430                       # Average number of cycles messages are stalled in this MB (Unspecified)
system.caches.network.int_link_buffers67.m_buf_msgs     0.005889                       # Average number of messages in buffer (Unspecified)
system.caches.network.int_link_buffers67.m_stall_time  3021.342031                       # Average number of cycles messages are stalled in this MB (Unspecified)
system.caches.network.int_link_buffers68.m_buf_msgs     0.011578                       # Average number of messages in buffer (Unspecified)
system.caches.network.int_link_buffers68.m_stall_time  2999.592171                       # Average number of cycles messages are stalled in this MB (Unspecified)
system.caches.network.int_link_buffers72.m_buf_msgs     0.002967                       # Average number of messages in buffer (Unspecified)
system.caches.network.int_link_buffers72.m_stall_time  2983.962890                       # Average number of cycles messages are stalled in this MB (Unspecified)
system.caches.network.int_link_buffers79.m_buf_msgs     0.003121                       # Average number of messages in buffer (Unspecified)
[...]
system.caches.controllers2.xyzStatsObjectlatency::underflows            0      0.00%      0.00% # Mem access latency (Unspecified)
system.caches.controllers2.xyzStatsObjectlatency::0-49999        11004    100.00%    100.00% # Mem access latency (Unspecified)
system.caches.controllers2.xyzStatsObjectlatency::50000-99999            0      0.00%    100.00% # Mem access latency (Unspecified)
system.caches.controllers2.xyzStatsObjectlatency::100000            0      0.00%    100.00% # Mem access latency (Unspecified)
system.caches.controllers2.xyzStatsObjectlatency::overflows            0      0.00%    100.00% # Mem access latency (Unspecified)
system.caches.controllers2.xyzStatsObjectlatency::min_value           10                       # Mem access latency (Unspecified)
system.caches.controllers2.xyzStatsObjectlatency::max_value          450                       # Mem access latency (Unspecified)
system.caches.controllers2.xyzStatsObjectlatency::total        11004                       # Mem access latency (Unspecified)
system.caches.controllers3.xyzStatsObject.total_put            0                       # Total number of put (PutM + PutS) (Unspecified)
system.caches.controllers3.xyzStatsObject.total_put_as_wt            0                       # Total number of put as write through (Unspecified)
system.caches.controllers3.xyzStatsObject.total_putm            0                       # Total number of PutM (Unspecified)
system.caches.controllers3.xyzStatsObject.total_putm_as_wt            0                       # Total number of PutM as write through (Unspecified)
system.caches.controllers3.xyzStatsObject.total_puts            0                       # Total number of PutS (Unspecified)
system.caches.controllers3.xyzStatsObject.total_puts_as_wt            0                       # Total number of PutS as write through (Unspecified)
system.caches.controllers3.xyzStatsObject.total_repl            0                       # Total Replacement (Unspecified)
system.caches.controllers3.xyzStatsObject.total_repl_llc            0                       # Total Replacement of LLC line (Unspecified)
system.caches.controllers3.xyzStatsObject.total_repl_owned            0                       # Total Replacement of owned line (Unspecified)
system.caches.controllers3.xyzStatsObject.total_repl_shared            0                       # Total Replacement of shared line (Unspecified)
system.caches.controllers3.xyzStatsObject.wt_putRatio          nan                       # WT / Put (Unspecified)
system.caches.controllers3.xyzStatsObject.wt_putmRatio          nan                       # PutM WT / PutM (Unspecified)
system.caches.controllers3.xyzStatsObject.wt_putsRatio          nan                       # PutS WT / PutS (Unspecified)
system.caches.controllers3.xyzStatsObjectlatency::samples        11028                       # Mem access latency (Unspecified)
system.caches.controllers3.xyzStatsObjectlatency::mean    84.407690                       # Mem access latency (Unspecified)
system.caches.controllers3.xyzStatsObjectlatency::stdev    46.837721                       # Mem access latency (Unspecified)
system.caches.controllers3.xyzStatsObjectlatency::underflows            0      0.00%      0.00% # Mem access latency (Unspecified)
system.caches.controllers3.xyzStatsObjectlatency::0-49999        11028    100.00%    100.00% # Mem access latency (Unspecified)
system.caches.controllers3.xyzStatsObjectlatency::50000-99999            0      0.00%    100.00% # Mem access latency (Unspecified)
system.caches.controllers3.xyzStatsObjectlatency::100000            0      0.00%    100.00% # Mem access latency (Unspecified)
system.caches.controllers3.xyzStatsObjectlatency::overflows            0      0.00%    100.00% # Mem access latency (Unspecified)
system.caches.controllers3.xyzStatsObjectlatency::min_value           10                       # Mem access latency (Unspecified)
system.caches.controllers3.xyzStatsObjectlatency::max_value          464                       # Mem access latency (Unspecified)
system.caches.controllers3.xyzStatsObjectlatency::total        11028                       # Mem access latency (Unspecified)
system.caches.controllers4.xyzStatsObject.total_put            0                       # Total number of put (PutM + PutS) (Unspecified)
system.caches.controllers4.xyzStatsObject.total_put_as_wt            0                       # Total number of put as write through (Unspecified)
system.caches.controllers4.xyzStatsObject.total_putm            0                       # Total number of PutM (Unspecified)
system.caches.controllers4.xyzStatsObject.total_putm_as_wt            0                       # Total number of PutM as write through (Unspecified)
system.caches.controllers4.xyzStatsObject.total_puts            0                       # Total number of PutS (Unspecified)
system.caches.controllers4.xyzStatsObject.total_puts_as_wt            0                       # Total number of PutS as write through (Unspecified)
system.caches.controllers4.xyzStatsObject.total_repl            0                       # Total Replacement (Unspecified)
system.caches.controllers4.xyzStatsObject.total_repl_llc            0                       # Total Replacement of LLC line (Unspecified)
system.caches.controllers4.xyzStatsObject.total_repl_owned            0                       # Total Replacement of owned line (Unspecified)
system.caches.controllers4.xyzStatsObject.total_repl_shared            0                       # Total Replacement of shared line (Unspecified)
system.caches.controllers4.xyzStatsObject.wt_putRatio          nan                       # WT / Put (Unspecified)
system.caches.controllers4.xyzStatsObject.wt_putmRatio          nan                       # PutM WT / PutM (Unspecified)
system.caches.controllers4.xyzStatsObject.wt_putsRatio          nan                       # PutS WT / PutS (Unspecified)
system.caches.controllers4.xyzStatsObjectlatency::samples         9570                       # Mem access latency (Unspecified)
system.caches.controllers4.xyzStatsObjectlatency::mean    78.904075                       # Mem access latency (Unspecified)
system.caches.controllers4.xyzStatsObjectlatency::stdev    33.862968                       # Mem access latency (Unspecified)
system.caches.controllers4.xyzStatsObjectlatency::underflows            0      0.00%      0.00% # Mem access latency (Unspecified)
system.caches.controllers4.xyzStatsObjectlatency::0-49999         9570    100.00%    100.00% # Mem access latency (Unspecified)
system.caches.controllers4.xyzStatsObjectlatency::50000-99999            0      0.00%    100.00% # Mem access latency (Unspecified)
system.caches.controllers4.xyzStatsObjectlatency::100000            0      0.00%    100.00% # Mem access latency (Unspecified)
system.caches.controllers4.xyzStatsObjectlatency::overflows            0      0.00%    100.00% # Mem access latency (Unspecified)
system.caches.controllers4.xyzStatsObjectlatency::min_value           15                       # Mem access latency (Unspecified)
system.caches.controllers4.xyzStatsObjectlatency::max_value          459                       # Mem access latency (Unspecified)
system.caches.controllers4.xyzStatsObjectlatency::total         9570                       # Mem access latency (Unspecified)
system.caches.controllers5.xyzStatsObject.total_put            0                       # Total number of put (PutM + PutS) (Unspecified)
system.caches.controllers5.xyzStatsObject.total_put_as_wt            0                       # Total number of put as write through (Unspecified)
system.caches.controllers5.xyzStatsObject.total_putm            0                       # Total number of PutM (Unspecified)
system.caches.controllers5.xyzStatsObject.total_putm_as_wt            0                       # Total number of PutM as write through (Unspecified)
system.caches.controllers5.xyzStatsObject.total_puts            0                       # Total number of PutS (Unspecified)
system.caches.controllers5.xyzStatsObject.total_puts_as_wt            0                       # Total number of PutS as write through (Unspecified)
system.caches.controllers5.xyzStatsObject.total_repl            0                       # Total Replacement (Unspecified)
system.caches.controllers5.xyzStatsObject.total_repl_llc            0                       # Total Replacement of LLC line (Unspecified)
system.caches.controllers5.xyzStatsObject.total_repl_owned            0                       # Total Replacement of owned line (Unspecified)
system.caches.controllers5.xyzStatsObject.total_repl_shared            0                       # Total Replacement of shared line (Unspecified)
system.caches.controllers5.xyzStatsObject.wt_putRatio          nan                       # WT / Put (Unspecified)
system.caches.controllers5.xyzStatsObject.wt_putmRatio          nan                       # PutM WT / PutM (Unspecified)
system.caches.controllers5.xyzStatsObject.wt_putsRatio          nan                       # PutS WT / PutS (Unspecified)
system.caches.controllers5.xyzStatsObjectlatency::samples         9530                       # Mem access latency (Unspecified)
system.caches.controllers5.xyzStatsObjectlatency::mean    78.981007                       # Mem access latency (Unspecified)
system.caches.controllers5.xyzStatsObjectlatency::stdev    33.699517                       # Mem access latency (Unspecified)
system.caches.controllers5.xyzStatsObjectlatency::underflows            0      0.00%      0.00% # Mem access latency (Unspecified)
system.caches.controllers5.xyzStatsObjectlatency::0-49999         9530    100.00%    100.00% # Mem access latency (Unspecified)
system.caches.controllers5.xyzStatsObjectlatency::50000-99999            0      0.00%    100.00% # Mem access latency (Unspecified)
system.caches.controllers5.xyzStatsObjectlatency::100000            0      0.00%    100.00% # Mem access latency (Unspecified)
system.caches.controllers5.xyzStatsObjectlatency::overflows            0      0.00%    100.00% # Mem access latency (Unspecified)
system.caches.controllers5.xyzStatsObjectlatency::min_value           15                       # Mem access latency (Unspecified)
system.caches.controllers5.xyzStatsObjectlatency::max_value          440                       # Mem access latency (Unspecified)
system.caches.controllers5.xyzStatsObjectlatency::total         9530                       # Mem access latency (Unspecified)
system.caches.controllers6.xyzStatsObject.total_put            0                       # Total number of put (PutM + PutS) (Unspecified)
system.caches.controllers6.xyzStatsObject.total_put_as_wt            0                       # Total number of put as write through (Unspecified)
system.caches.controllers6.xyzStatsObject.total_putm            0                       # Total number of PutM (Unspecified)
system.caches.controllers6.xyzStatsObject.total_putm_as_wt            0                       # Total number of PutM as write through (Unspecified)
system.caches.controllers6.xyzStatsObject.total_puts            0                       # Total number of PutS (Unspecified)
system.caches.controllers6.xyzStatsObject.total_puts_as_wt            0                       # Total number of PutS as write through (Unspecified)
system.caches.controllers6.xyzStatsObject.total_repl            0                       # Total Replacement (Unspecified)
system.caches.controllers6.xyzStatsObject.total_repl_llc            0                       # Total Replacement of LLC line (Unspecified)
system.caches.controllers6.xyzStatsObject.total_repl_owned            0                       # Total Replacement of owned line (Unspecified)
system.caches.controllers6.xyzStatsObject.total_repl_shared            0                       # Total Replacement of shared line (Unspecified)
system.caches.controllers6.xyzStatsObject.wt_putRatio          nan                       # WT / Put (Unspecified)
system.caches.controllers6.xyzStatsObject.wt_putmRatio          nan                       # PutM WT / PutM (Unspecified)
system.caches.controllers6.xyzStatsObject.wt_putsRatio          nan                       # PutS WT / PutS (Unspecified)
system.caches.controllers6.xyzStatsObjectlatency::samples         9551                       # Mem access latency (Unspecified)
system.caches.controllers6.xyzStatsObjectlatency::mean    78.987645                       # Mem access latency (Unspecified)
system.caches.controllers6.xyzStatsObjectlatency::stdev    33.486346                       # Mem access latency (Unspecified)
system.caches.controllers6.xyzStatsObjectlatency::underflows            0      0.00%      0.00% # Mem access latency (Unspecified)
system.caches.controllers6.xyzStatsObjectlatency::0-49999         9551    100.00%    100.00% # Mem access latency (Unspecified)
system.caches.controllers6.xyzStatsObjectlatency::50000-99999            0      0.00%    100.00% # Mem access latency (Unspecified)
system.caches.controllers6.xyzStatsObjectlatency::100000            0      0.00%    100.00% # Mem access latency (Unspecified)
system.caches.controllers6.xyzStatsObjectlatency::overflows            0      0.00%    100.00% # Mem access latency (Unspecified)
system.caches.controllers6.xyzStatsObjectlatency::min_value           15                       # Mem access latency (Unspecified)
system.caches.controllers6.xyzStatsObjectlatency::max_value          440                       # Mem access latency (Unspecified)
system.caches.controllers6.xyzStatsObjectlatency::total         9551                       # Mem access latency (Unspecified)
system.caches.controllers7.xyzStatsObject.total_put            0                       # Total number of put (PutM + PutS) (Unspecified)
system.caches.controllers7.xyzStatsObject.total_put_as_wt            0                       # Total number of put as write through (Unspecified)
system.caches.controllers7.xyzStatsObject.total_putm            0                       # Total number of PutM (Unspecified)
system.caches.controllers7.xyzStatsObject.total_putm_as_wt            0                       # Total number of PutM as write through (Unspecified)
system.caches.controllers7.xyzStatsObject.total_puts            0                       # Total number of PutS (Unspecified)
system.caches.controllers7.xyzStatsObject.total_puts_as_wt            0                       # Total number of PutS as write through (Unspecified)
system.caches.controllers7.xyzStatsObject.total_repl            0                       # Total Replacement (Unspecified)
system.caches.controllers7.xyzStatsObject.total_repl_llc            0                       # Total Replacement of LLC line (Unspecified)
system.caches.controllers7.xyzStatsObject.total_repl_owned            0                       # Total Replacement of owned line (Unspecified)
system.caches.controllers7.xyzStatsObject.total_repl_shared            0                       # Total Replacement of shared line (Unspecified)
system.caches.controllers7.xyzStatsObject.wt_putRatio          nan                       # WT / Put (Unspecified)
system.caches.controllers7.xyzStatsObject.wt_putmRatio          nan                       # PutM WT / PutM (Unspecified)
system.caches.controllers7.xyzStatsObject.wt_putsRatio          nan                       # PutS WT / PutS (Unspecified)
system.caches.controllers7.xyzStatsObjectlatency::samples         9561                       # Mem access latency (Unspecified)
system.caches.controllers7.xyzStatsObjectlatency::mean    78.971865                       # Mem access latency (Unspecified)
system.caches.controllers7.xyzStatsObjectlatency::stdev    33.651101                       # Mem access latency (Unspecified)
system.caches.controllers7.xyzStatsObjectlatency::underflows            0      0.00%      0.00% # Mem access latency (Unspecified)
system.caches.controllers7.xyzStatsObjectlatency::0-49999         9561    100.00%    100.00% # Mem access latency (Unspecified)
system.caches.controllers7.xyzStatsObjectlatency::50000-99999            0      0.00%    100.00% # Mem access latency (Unspecified)
system.caches.controllers7.xyzStatsObjectlatency::100000            0      0.00%    100.00% # Mem access latency (Unspecified)
system.caches.controllers7.xyzStatsObjectlatency::overflows            0      0.00%    100.00% # Mem access latency (Unspecified)
system.caches.controllers7.xyzStatsObjectlatency::min_value           15                       # Mem access latency (Unspecified)
system.caches.controllers7.xyzStatsObjectlatency::max_value          454                       # Mem access latency (Unspecified)
system.caches.controllers7.xyzStatsObjectlatency::total         9561                       # Mem access latency (Unspecified)
system.caches.controllers8.xyzStatsObject.total_put         2657                       # Total number of put (PutM + PutS) (Unspecified)
system.caches.controllers8.xyzStatsObject.total_put_as_wt            0                       # Total number of put as write through (Unspecified)
system.caches.controllers8.xyzStatsObject.total_putm         2610                       # Total number of PutM (Unspecified)
system.caches.controllers8.xyzStatsObject.total_putm_as_wt            0                       # Total number of PutM as write through (Unspecified)
system.caches.controllers8.xyzStatsObject.total_puts           47                       # Total number of PutS (Unspecified)
system.caches.controllers8.xyzStatsObject.total_puts_as_wt            0                       # Total number of PutS as write through (Unspecified)
system.caches.controllers8.xyzStatsObject.total_repl            0                       # Total Replacement (Unspecified)
system.caches.controllers8.xyzStatsObject.total_repl_llc            0                       # Total Replacement of LLC line (Unspecified)
system.caches.controllers8.xyzStatsObject.total_repl_owned            0                       # Total Replacement of owned line (Unspecified)
system.caches.controllers8.xyzStatsObject.total_repl_shared            0                       # Total Replacement of shared line (Unspecified)
system.caches.controllers8.xyzStatsObject.wt_putRatio            0                       # WT / Put (Unspecified)
system.caches.controllers8.xyzStatsObject.wt_putmRatio            0                       # PutM WT / PutM (Unspecified)
system.caches.controllers8.xyzStatsObject.wt_putsRatio            0                       # PutS WT / PutS (Unspecified)
system.caches.controllers8.xyzStatsObjectlatency::samples            0                       # Mem access latency (Unspecified)
system.caches.controllers8.xyzStatsObjectlatency::mean          nan                       # Mem access latency (Unspecified)
system.caches.controllers8.xyzStatsObjectlatency::stdev          nan                       # Mem access latency (Unspecified)
system.caches.controllers8.xyzStatsObjectlatency::underflows            0                       # Mem access latency (Unspecified)
system.caches.controllers8.xyzStatsObjectlatency::0-49999            0                       # Mem access latency (Unspecified)
system.caches.controllers8.xyzStatsObjectlatency::50000-99999            0                       # Mem access latency (Unspecified)
system.caches.controllers8.xyzStatsObjectlatency::100000            0                       # Mem access latency (Unspecified)
system.caches.controllers8.xyzStatsObjectlatency::overflows            0                       # Mem access latency (Unspecified)
system.caches.controllers8.xyzStatsObjectlatency::min_value            0                       # Mem access latency (Unspecified)
system.caches.controllers8.xyzStatsObjectlatency::max_value            0                       # Mem access latency (Unspecified)
system.caches.controllers8.xyzStatsObjectlatency::total            0                       # Mem access latency (Unspecified)

---------- End Simulation Statistics   ----------
