
---------- Begin Simulation Statistics ----------
simSeconds                                   0.000918                       # Number of seconds simulated (Second)
simTicks                                    918438001                       # Number of ticks simulated (Tick)
finalTick                                   918438001                       # Number of ticks from beginning of simulation (restored from checkpoints and never reset) (Tick)
simFreq                                  1000000000000                       # The number of ticks per simulated second ((Tick/Second))
hostSeconds                                     19.56                       # Real time elapsed on the host (Second)
hostTickRate                                 46946101                       # The number of ticks simulated per host second (ticks/s) ((Tick/Second))
hostMemory                                    5127892                       # Number of bytes of host memory used (Byte)
system.caches.m_outstandReqHistSeqr::bucket_size            1                       (Unspecified)
system.caches.m_outstandReqHistSeqr::max_bucket            9                       (Unspecified)
system.caches.m_outstandReqHistSeqr::samples        50419                       (Unspecified)
system.caches.m_outstandReqHistSeqr::mean            1                       (Unspecified)
system.caches.m_outstandReqHistSeqr::gmean            1                       (Unspecified)
system.caches.m_outstandReqHistSeqr      |           0      0.00%      0.00% |       50419    100.00%    100.00% |           0      0.00%    100.00% |           0      0.00%    100.00% |           0      0.00%    100.00% |           0      0.00%    100.00% |           0      0.00%    100.00% |           0      0.00%    100.00% |           0      0.00%    100.00% |           0      0.00%    100.00% (Unspecified)
system.caches.m_outstandReqHistSeqr::total        50419                       (Unspecified)
system.caches.m_latencyHistSeqr::bucket_size          128                       (Unspecified)
system.caches.m_latencyHistSeqr::max_bucket         1279                       (Unspecified)
system.caches.m_latencyHistSeqr::samples        50412                       (Unspecified)
system.caches.m_latencyHistSeqr::mean      144.736452                       (Unspecified)
system.caches.m_latencyHistSeqr::gmean      90.275694                       (Unspecified)
system.caches.m_latencyHistSeqr::stdev      69.779782                       (Unspecified)
system.caches.m_latencyHistSeqr          |       11390     22.59%     22.59% |       37629     74.64%     97.24% |        1265      2.51%     99.75% |          31      0.06%     99.81% |          46      0.09%     99.90% |          25      0.05%     99.95% |          11      0.02%     99.97% |          15      0.03%    100.00% |           0      0.00%    100.00% |           0      0.00%    100.00% (Unspecified)
system.caches.m_latencyHistSeqr::total          50412                       (Unspecified)
system.caches.m_hitLatencyHistSeqr::bucket_size            1                       (Unspecified)
system.caches.m_hitLatencyHistSeqr::max_bucket            9                       (Unspecified)
system.caches.m_hitLatencyHistSeqr::samples         4966                       (Unspecified)
system.caches.m_hitLatencyHistSeqr::mean            1                       (Unspecified)
system.caches.m_hitLatencyHistSeqr::gmean            1                       (Unspecified)
system.caches.m_hitLatencyHistSeqr       |           0      0.00%      0.00% |        4966    100.00%    100.00% |           0      0.00%    100.00% |           0      0.00%    100.00% |           0      0.00%    100.00% |           0      0.00%    100.00% |           0      0.00%    100.00% |           0      0.00%    100.00% |           0      0.00%    100.00% |           0      0.00%    100.00% (Unspecified)
system.caches.m_hitLatencyHistSeqr::total         4966                       (Unspecified)
system.caches.m_missLatencyHistSeqr::bucket_size          128                       (Unspecified)
system.caches.m_missLatencyHistSeqr::max_bucket         1279                       (Unspecified)
system.caches.m_missLatencyHistSeqr::samples        45446                       (Unspecified)
system.caches.m_missLatencyHistSeqr::mean   160.442899                       (Unspecified)
system.caches.m_missLatencyHistSeqr::gmean   147.659378                       (Unspecified)
system.caches.m_missLatencyHistSeqr::stdev    53.823460                       (Unspecified)
system.caches.m_missLatencyHistSeqr      |        6424     14.14%     14.14% |       37629     82.80%     96.93% |        1265      2.78%     99.72% |          31      0.07%     99.79% |          46      0.10%     99.89% |          25      0.06%     99.94% |          11      0.02%     99.97% |          15      0.03%    100.00% |           0      0.00%    100.00% |           0      0.00%    100.00% (Unspecified)
system.caches.m_missLatencyHistSeqr::total        45446                       (Unspecified)
system.caches.L0Cache_Controller.Load    |         568     11.27%     11.27% |         636     12.62%     23.88% |         629     12.48%     36.36% |         624     12.38%     48.74% |         635     12.60%     61.34% |         667     13.23%     74.57% |         650     12.89%     87.46% |         632     12.54%    100.00% (Unspecified)
system.caches.L0Cache_Controller.Load::total         5041                       (Unspecified)
system.caches.L0Cache_Controller.Ifetch  |         597     12.04%     12.04% |         611     12.32%     24.36% |         621     12.52%     36.88% |         618     12.46%     49.34% |         623     12.56%     61.91% |         615     12.40%     74.31% |         641     12.93%     87.24% |         633     12.76%    100.00% (Unspecified)
system.caches.L0Cache_Controller.Ifetch::total         4959                       (Unspecified)
system.caches.L0Cache_Controller.Store   |        5096     12.61%     12.61% |        5056     12.51%     25.12% |        5051     12.50%     37.61% |        5121     12.67%     50.28% |        5026     12.43%     62.72% |        5079     12.57%     75.28% |        4969     12.29%     87.58% |        5021     12.42%    100.00% (Unspecified)
system.caches.L0Cache_Controller.Store::total        40419                       (Unspecified)
system.caches.L0Cache_Controller.Replacement |         605     12.43%     12.43% |         591     12.14%     24.57% |         608     12.49%     37.07% |         625     12.84%     49.91% |         576     11.83%     61.74% |         640     13.15%     74.89% |         611     12.55%     87.45% |         611     12.55%    100.00% (Unspecified)
system.caches.L0Cache_Controller.Replacement::total         4867                       (Unspecified)
system.caches.L0Cache_Controller.Inv     |        5062     12.50%     12.50% |        5086     12.55%     25.05% |        5065     12.50%     37.55% |        5042     12.45%     50.00% |        5071     12.52%     62.51% |        5061     12.49%     75.01% |        5062     12.50%     87.50% |        5063     12.50%    100.00% (Unspecified)
system.caches.L0Cache_Controller.Inv::total        40512                       (Unspecified)
system.caches.L0Cache_Controller.Data    |        4583     12.71%     12.71% |        4501     12.48%     25.18% |        4514     12.51%     37.70% |        4526     12.55%     50.25% |        4476     12.41%     62.66% |        4509     12.50%     75.16% |        4462     12.37%     87.53% |        4499     12.47%    100.00% (Unspecified)
system.caches.L0Cache_Controller.Data::total        36070                       (Unspecified)
system.caches.L0Cache_Controller.ExData  |        1092     11.65%     11.65% |        1186     12.65%     24.30% |        1165     12.43%     36.72% |        1151     12.28%     49.00% |        1184     12.63%     61.63% |        1195     12.75%     74.37% |        1215     12.96%     87.33% |        1188     12.67%    100.00% (Unspecified)
system.caches.L0Cache_Controller.ExData::total         9376                       (Unspecified)
system.caches.L0Cache_Controller.I.Load  |         500     11.21%     11.21% |         580     13.01%     24.22% |         548     12.29%     36.51% |         541     12.13%     48.64% |         569     12.76%     61.40% |         587     13.16%     74.57% |         577     12.94%     87.51% |         557     12.49%    100.00% (Unspecified)
system.caches.L0Cache_Controller.I.Load::total         4459                       (Unspecified)
system.caches.L0Cache_Controller.I.Ifetch |         592     12.04%     12.04% |         606     12.32%     24.36% |         617     12.55%     36.91% |         610     12.41%     49.32% |         615     12.51%     61.83% |         608     12.37%     74.19% |         638     12.98%     87.17% |         631     12.83%    100.00% (Unspecified)
system.caches.L0Cache_Controller.I.Ifetch::total         4917                       (Unspecified)
system.caches.L0Cache_Controller.I.Store |        4584     12.71%     12.71% |        4502     12.48%     25.19% |        4515     12.51%     37.70% |        4527     12.55%     50.25% |        4477     12.41%     62.66% |        4510     12.50%     75.16% |        4462     12.37%     87.53% |        4500     12.47%    100.00% (Unspecified)
system.caches.L0Cache_Controller.I.Store::total        36077                       (Unspecified)
system.caches.L0Cache_Controller.I.Inv   |           3     17.65%     17.65% |           0      0.00%     17.65% |           2     11.76%     29.41% |           2     11.76%     41.18% |           3     17.65%     58.82% |           5     29.41%     88.24% |           1      5.88%     94.12% |           1      5.88%    100.00% (Unspecified)
system.caches.L0Cache_Controller.I.Inv::total           17                       (Unspecified)
system.caches.L0Cache_Controller.IS_D.Inv |           0      0.00%      0.00% |           0      0.00%      0.00% |           1     33.33%     33.33% |           0      0.00%     33.33% |           0      0.00%     33.33% |           0      0.00%     33.33% |           2     66.67%    100.00% |           0      0.00%    100.00% (Unspecified)
system.caches.L0Cache_Controller.IS_D.Inv::total            3                       (Unspecified)
system.caches.L0Cache_Controller.IS_D.ExData |        1092     11.65%     11.65% |        1186     12.65%     24.30% |        1165     12.43%     36.72% |        1151     12.28%     49.00% |        1184     12.63%     61.63% |        1195     12.75%     74.37% |        1215     12.96%     87.33% |        1188     12.67%    100.00% (Unspecified)
system.caches.L0Cache_Controller.IS_D.ExData::total         9376                       (Unspecified)
system.caches.L0Cache_Controller.IM_D.Inv |           1     14.29%     14.29% |           0      0.00%     14.29% |           1     14.29%     28.57% |           2     28.57%     57.14% |           0      0.00%     57.14% |           2     28.57%     85.71% |           0      0.00%     85.71% |           1     14.29%    100.00% (Unspecified)
system.caches.L0Cache_Controller.IM_D.Inv::total            7                       (Unspecified)
system.caches.L0Cache_Controller.IM_D.Data |        4583     12.71%     12.71% |        4501     12.48%     25.18% |        4514     12.51%     37.70% |        4526     12.55%     50.25% |        4476     12.41%     62.66% |        4509     12.50%     75.16% |        4462     12.37%     87.53% |        4499     12.47%    100.00% (Unspecified)
system.caches.L0Cache_Controller.IM_D.Data::total        36070                       (Unspecified)
system.caches.L0Cache_Controller.M.Load  |          68     11.68%     11.68% |          56      9.62%     21.31% |          81     13.92%     35.22% |          83     14.26%     49.48% |          66     11.34%     60.82% |          80     13.75%     74.57% |          73     12.54%     87.11% |          75     12.89%    100.00% (Unspecified)
system.caches.L0Cache_Controller.M.Load::total          582                       (Unspecified)
system.caches.L0Cache_Controller.M.Ifetch |           5     11.90%     11.90% |           5     11.90%     23.81% |           4      9.52%     33.33% |           8     19.05%     52.38% |           8     19.05%     71.43% |           7     16.67%     88.10% |           3      7.14%     95.24% |           2      4.76%    100.00% (Unspecified)
system.caches.L0Cache_Controller.M.Ifetch::total           42                       (Unspecified)
system.caches.L0Cache_Controller.M.Store |         512     11.79%     11.79% |         554     12.76%     24.55% |         536     12.34%     36.90% |         594     13.68%     50.58% |         549     12.64%     63.22% |         569     13.10%     76.32% |         507     11.68%     88.00% |         521     12.00%    100.00% (Unspecified)
system.caches.L0Cache_Controller.M.Store::total         4342                       (Unspecified)
system.caches.L0Cache_Controller.M.Replacement |         605     12.43%     12.43% |         591     12.14%     24.57% |         608     12.49%     37.07% |         625     12.84%     49.91% |         576     11.83%     61.74% |         640     13.15%     74.89% |         611     12.55%     87.45% |         611     12.55%    100.00% (Unspecified)
system.caches.L0Cache_Controller.M.Replacement::total         4867                       (Unspecified)
system.caches.L0Cache_Controller.M.Inv   |        5058     12.49%     12.49% |        5086     12.56%     25.06% |        5061     12.50%     37.56% |        5038     12.44%     50.00% |        5068     12.52%     62.52% |        5054     12.48%     75.00% |        5059     12.50%     87.50% |        5061     12.50%    100.00% (Unspecified)
system.caches.L0Cache_Controller.M.Inv::total        40485                       (Unspecified)
system.caches.Directory_Controller.GetS          8695      0.00%      0.00% (Unspecified)
system.caches.Directory_Controller.GetM         35127      0.00%      0.00% (Unspecified)
system.caches.Directory_Controller.MemData          102      0.00%      0.00% (Unspecified)
system.caches.Directory_Controller.I.GetM          102      0.00%      0.00% (Unspecified)
system.caches.Directory_Controller.M.GetS         8695      0.00%      0.00% (Unspecified)
system.caches.Directory_Controller.M.GetM        35025      0.00%      0.00% (Unspecified)
system.caches.Directory_Controller.M_m.MemData          102      0.00%      0.00% (Unspecified)
system.caches.L1Cache_Controller.Load    |        1092     11.65%     11.65% |        1186     12.65%     24.30% |        1165     12.43%     36.72% |        1151     12.28%     49.00% |        1184     12.63%     61.63% |        1195     12.75%     74.37% |        1215     12.96%     87.33% |        1188     12.67%    100.00% (Unspecified)
system.caches.L1Cache_Controller.Load::total         9376                       (Unspecified)
system.caches.L1Cache_Controller.Store   |        4584     12.71%     12.71% |        4502     12.48%     25.19% |        4515     12.51%     37.70% |        4527     12.55%     50.25% |        4477     12.41%     62.66% |        4510     12.50%     75.16% |        4462     12.37%     87.53% |        4500     12.47%    100.00% (Unspecified)
system.caches.L1Cache_Controller.Store::total        36077                       (Unspecified)
system.caches.L1Cache_Controller.PutM    |         605     12.43%     12.43% |         591     12.14%     24.57% |         608     12.49%     37.07% |         625     12.84%     49.91% |         576     11.83%     61.74% |         640     13.15%     74.89% |         611     12.55%     87.45% |         611     12.55%    100.00% (Unspecified)
system.caches.L1Cache_Controller.PutM::total         4867                       (Unspecified)
system.caches.L1Cache_Controller.FwdGetM |       10724     12.47%     12.47% |       10767     12.52%     25.00% |       10755     12.51%     37.51% |       10736     12.49%     49.99% |       10734     12.49%     62.48% |       10737     12.49%     74.97% |       10779     12.54%     87.51% |       10741     12.49%    100.00% (Unspecified)
system.caches.L1Cache_Controller.FwdGetM::total        85973                       (Unspecified)
system.caches.L1Cache_Controller.DataDirNoAcks |          10      9.80%      9.80% |          11     10.78%     20.59% |          14     13.73%     34.31% |          11     10.78%     45.10% |          15     14.71%     59.80% |          13     12.75%     72.55% |          13     12.75%     85.29% |          15     14.71%    100.00% (Unspecified)
system.caches.L1Cache_Controller.DataDirNoAcks::total          102                       (Unspecified)
system.caches.L1Cache_Controller.DataOwner |        5467     12.50%     12.50% |        5467     12.50%     25.01% |        5464     12.50%     37.51% |        5467     12.50%     50.01% |        5463     12.50%     62.51% |        5465     12.50%     75.01% |        5465     12.50%     87.51% |        5462     12.49%    100.00% (Unspecified)
system.caches.L1Cache_Controller.DataOwner::total        43720                       (Unspecified)
system.caches.L1Cache_Controller.WB_Data |        5058     12.49%     12.49% |        5086     12.56%     25.06% |        5061     12.50%     37.56% |        5038     12.44%     50.00% |        5068     12.52%     62.52% |        5054     12.48%     75.00% |        5059     12.50%     87.50% |        5061     12.50%    100.00% (Unspecified)
system.caches.L1Cache_Controller.WB_Data::total        40485                       (Unspecified)
system.caches.L1Cache_Controller.I.Load  |        1014     11.66%     11.66% |        1100     12.65%     24.31% |        1073     12.34%     36.65% |        1070     12.31%     48.96% |        1103     12.69%     61.64% |        1099     12.64%     74.28% |        1137     13.08%     87.36% |        1099     12.64%    100.00% (Unspecified)
system.caches.L1Cache_Controller.I.Load::total         8695                       (Unspecified)
system.caches.L1Cache_Controller.I.Store |        4464     12.71%     12.71% |        4379     12.46%     25.17% |        4406     12.54%     37.71% |        4409     12.55%     50.26% |        4376     12.46%     62.71% |        4380     12.47%     75.18% |        4341     12.36%     87.54% |        4379     12.46%    100.00% (Unspecified)
system.caches.L1Cache_Controller.I.Store::total        35134                       (Unspecified)
system.caches.L1Cache_Controller.IS_D.FwdGetM |           4     17.39%     17.39% |           2      8.70%     26.09% |           2      8.70%     34.78% |           2      8.70%     43.48% |           2      8.70%     52.17% |           2      8.70%     60.87% |           4     17.39%     78.26% |           5     21.74%    100.00% (Unspecified)
system.caches.L1Cache_Controller.IS_D.FwdGetM::total           23                       (Unspecified)
system.caches.L1Cache_Controller.IS_D.DataOwner |        1014     11.66%     11.66% |        1100     12.65%     24.31% |        1073     12.34%     36.65% |        1070     12.31%     48.96% |        1103     12.69%     61.64% |        1099     12.64%     74.28% |        1137     13.08%     87.36% |        1099     12.64%    100.00% (Unspecified)
system.caches.L1Cache_Controller.IS_D.DataOwner::total         8695                       (Unspecified)
system.caches.L1Cache_Controller.IM_AD.FwdGetM |          11     11.83%     11.83% |          13     13.98%     25.81% |          12     12.90%     38.71% |          10     10.75%     49.46% |           7      7.53%     56.99% |          14     15.05%     72.04% |          11     11.83%     83.87% |          15     16.13%    100.00% (Unspecified)
system.caches.L1Cache_Controller.IM_AD.FwdGetM::total           93                       (Unspecified)
system.caches.L1Cache_Controller.IM_AD.DataDirNoAcks |          10      9.80%      9.80% |          11     10.78%     20.59% |          14     13.73%     34.31% |          11     10.78%     45.10% |          15     14.71%     59.80% |          13     12.75%     72.55% |          13     12.75%     85.29% |          15     14.71%    100.00% (Unspecified)
system.caches.L1Cache_Controller.IM_AD.DataDirNoAcks::total          102                       (Unspecified)
system.caches.L1Cache_Controller.IM_AD.DataOwner |        4453     12.71%     12.71% |        4367     12.47%     25.18% |        4391     12.54%     37.72% |        4397     12.55%     50.27% |        4360     12.45%     62.72% |        4366     12.47%     75.19% |        4328     12.36%     87.54% |        4363     12.46%    100.00% (Unspecified)
system.caches.L1Cache_Controller.IM_AD.DataOwner::total        35025                       (Unspecified)
system.caches.L1Cache_Controller.M.Load  |          78     11.45%     11.45% |          86     12.63%     24.08% |          92     13.51%     37.59% |          81     11.89%     49.49% |          81     11.89%     61.38% |          96     14.10%     75.48% |          78     11.45%     86.93% |          89     13.07%    100.00% (Unspecified)
system.caches.L1Cache_Controller.M.Load::total          681                       (Unspecified)
system.caches.L1Cache_Controller.M.Store |         120     12.73%     12.73% |         123     13.04%     25.77% |         109     11.56%     37.33% |         118     12.51%     49.84% |         101     10.71%     60.55% |         130     13.79%     74.34% |         121     12.83%     87.17% |         121     12.83%    100.00% (Unspecified)
system.caches.L1Cache_Controller.M.Store::total          943                       (Unspecified)
system.caches.L1Cache_Controller.M.FwdGetM |        5464     12.50%     12.50% |        5466     12.50%     25.00% |        5467     12.50%     37.50% |        5463     12.50%     50.00% |        5462     12.49%     62.49% |        5468     12.51%     75.00% |        5470     12.51%     87.51% |        5460     12.49%    100.00% (Unspecified)
system.caches.L1Cache_Controller.M.FwdGetM::total        43720                       (Unspecified)
system.caches.L1Cache_Controller.M_P.PutM |         601     12.42%     12.42% |         591     12.21%     24.63% |         604     12.48%     37.11% |         621     12.83%     49.94% |         573     11.84%     61.78% |         633     13.08%     74.86% |         608     12.56%     87.42% |         609     12.58%    100.00% (Unspecified)
system.caches.L1Cache_Controller.M_P.PutM::total         4840                       (Unspecified)
system.caches.L1Cache_Controller.M_P.FwdGetM |        5061     12.50%     12.50% |        5086     12.56%     25.05% |        5063     12.50%     37.55% |        5040     12.44%     50.00% |        5071     12.52%     62.52% |        5059     12.49%     75.01% |        5060     12.49%     87.50% |        5062     12.50%    100.00% (Unspecified)
system.caches.L1Cache_Controller.M_P.FwdGetM::total        40502                       (Unspecified)
system.caches.L1Cache_Controller.M_P.WB_Data |           1     10.00%     10.00% |           0      0.00%     10.00% |           2     20.00%     30.00% |           2     20.00%     50.00% |           0      0.00%     50.00% |           2     20.00%     70.00% |           2     20.00%     90.00% |           1     10.00%    100.00% (Unspecified)
system.caches.L1Cache_Controller.M_P.WB_Data::total           10                       (Unspecified)
system.caches.L1Cache_Controller.MP_D.PutM |           4     14.81%     14.81% |           0      0.00%     14.81% |           4     14.81%     29.63% |           4     14.81%     44.44% |           3     11.11%     55.56% |           7     25.93%     81.48% |           3     11.11%     92.59% |           2      7.41%    100.00% (Unspecified)
system.caches.L1Cache_Controller.MP_D.PutM::total           27                       (Unspecified)
system.caches.L1Cache_Controller.MP_D.FwdGetM |         184     11.25%     11.25% |         200     12.23%     23.49% |         211     12.91%     36.39% |         221     13.52%     49.91% |         192     11.74%     61.65% |         194     11.87%     73.52% |         234     14.31%     87.83% |         199     12.17%    100.00% (Unspecified)
system.caches.L1Cache_Controller.MP_D.FwdGetM::total         1635                       (Unspecified)
system.caches.L1Cache_Controller.MP_D.WB_Data |        5057     12.49%     12.49% |        5086     12.57%     25.06% |        5059     12.50%     37.56% |        5036     12.44%     50.00% |        5068     12.52%     62.52% |        5052     12.48%     75.00% |        5057     12.49%     87.50% |        5060     12.50%    100.00% (Unspecified)
system.caches.L1Cache_Controller.MP_D.WB_Data::total        40475                       (Unspecified)
system.caches.RequestType.LD.latency_hist_seqr::bucket_size           64                       (Unspecified)
system.caches.RequestType.LD.latency_hist_seqr::max_bucket          639                       (Unspecified)
system.caches.RequestType.LD.latency_hist_seqr::samples         5041                       (Unspecified)
system.caches.RequestType.LD.latency_hist_seqr::mean   143.150565                       (Unspecified)
system.caches.RequestType.LD.latency_hist_seqr::gmean    86.379204                       (Unspecified)
system.caches.RequestType.LD.latency_hist_seqr::stdev    64.464369                       (Unspecified)
system.caches.RequestType.LD.latency_hist_seqr |         643     12.76%     12.76% |         492      9.76%     22.52% |        2992     59.35%     81.87% |         808     16.03%     97.90% |         102      2.02%     99.92% |           4      0.08%    100.00% |           0      0.00%    100.00% |           0      0.00%    100.00% |           0      0.00%    100.00% |           0      0.00%    100.00% (Unspecified)
system.caches.RequestType.LD.latency_hist_seqr::total         5041                       (Unspecified)
system.caches.RequestType.LD.hit_latency_hist_seqr::bucket_size            1                       (Unspecified)
system.caches.RequestType.LD.hit_latency_hist_seqr::max_bucket            9                       (Unspecified)
system.caches.RequestType.LD.hit_latency_hist_seqr::samples          582                       (Unspecified)
system.caches.RequestType.LD.hit_latency_hist_seqr::mean            1                       (Unspecified)
system.caches.RequestType.LD.hit_latency_hist_seqr::gmean            1                       (Unspecified)
system.caches.RequestType.LD.hit_latency_hist_seqr |           0      0.00%      0.00% |         582    100.00%    100.00% |           0      0.00%    100.00% |           0      0.00%    100.00% |           0      0.00%    100.00% |           0      0.00%    100.00% |           0      0.00%    100.00% |           0      0.00%    100.00% |           0      0.00%    100.00% |           0      0.00%    100.00% (Unspecified)
system.caches.RequestType.LD.hit_latency_hist_seqr::total          582                       (Unspecified)
system.caches.RequestType.LD.miss_latency_hist_seqr::bucket_size           64                       (Unspecified)
system.caches.RequestType.LD.miss_latency_hist_seqr::max_bucket          639                       (Unspecified)
system.caches.RequestType.LD.miss_latency_hist_seqr::samples         4459                       (Unspecified)
system.caches.RequestType.LD.miss_latency_hist_seqr::mean   161.704418                       (Unspecified)
system.caches.RequestType.LD.miss_latency_hist_seqr::gmean   154.580334                       (Unspecified)
system.caches.RequestType.LD.miss_latency_hist_seqr::stdev    41.422557                       (Unspecified)
system.caches.RequestType.LD.miss_latency_hist_seqr |          61      1.37%      1.37% |         492     11.03%     12.40% |        2992     67.10%     79.50% |         808     18.12%     97.62% |         102      2.29%     99.91% |           4      0.09%    100.00% |           0      0.00%    100.00% |           0      0.00%    100.00% |           0      0.00%    100.00% |           0      0.00%    100.00% (Unspecified)
system.caches.RequestType.LD.miss_latency_hist_seqr::total         4459                       (Unspecified)
system.caches.RequestType.ST.latency_hist_seqr::bucket_size          128                       (Unspecified)
system.caches.RequestType.ST.latency_hist_seqr::max_bucket         1279                       (Unspecified)
system.caches.RequestType.ST.latency_hist_seqr::samples        40412                       (Unspecified)
system.caches.RequestType.ST.latency_hist_seqr::mean   145.008042                       (Unspecified)
system.caches.RequestType.ST.latency_hist_seqr::gmean    88.231133                       (Unspecified)
system.caches.RequestType.ST.latency_hist_seqr::stdev    71.217718                       (Unspecified)
system.caches.RequestType.ST.latency_hist_seqr |        9099     22.52%     22.52% |       30150     74.61%     97.12% |        1035      2.56%     99.68% |          31      0.08%     99.76% |          46      0.11%     99.87% |          25      0.06%     99.94% |          11      0.03%     99.96% |          15      0.04%    100.00% |           0      0.00%    100.00% |           0      0.00%    100.00% (Unspecified)
system.caches.RequestType.ST.latency_hist_seqr::total        40412                       (Unspecified)
system.caches.RequestType.ST.hit_latency_hist_seqr::bucket_size            1                       (Unspecified)
system.caches.RequestType.ST.hit_latency_hist_seqr::max_bucket            9                       (Unspecified)
system.caches.RequestType.ST.hit_latency_hist_seqr::samples         4342                       (Unspecified)
system.caches.RequestType.ST.hit_latency_hist_seqr::mean            1                       (Unspecified)
system.caches.RequestType.ST.hit_latency_hist_seqr::gmean            1                       (Unspecified)
system.caches.RequestType.ST.hit_latency_hist_seqr |           0      0.00%      0.00% |        4342    100.00%    100.00% |           0      0.00%    100.00% |           0      0.00%    100.00% |           0      0.00%    100.00% |           0      0.00%    100.00% |           0      0.00%    100.00% |           0      0.00%    100.00% |           0      0.00%    100.00% |           0      0.00%    100.00% (Unspecified)
system.caches.RequestType.ST.hit_latency_hist_seqr::total         4342                       (Unspecified)
system.caches.RequestType.ST.miss_latency_hist_seqr::bucket_size          128                       (Unspecified)
system.caches.RequestType.ST.miss_latency_hist_seqr::max_bucket         1279                       (Unspecified)
system.caches.RequestType.ST.miss_latency_hist_seqr::samples        36070                       (Unspecified)
system.caches.RequestType.ST.miss_latency_hist_seqr::mean   162.343305                       (Unspecified)
system.caches.RequestType.ST.miss_latency_hist_seqr::gmean   151.296912                       (Unspecified)
system.caches.RequestType.ST.miss_latency_hist_seqr::stdev    53.717057                       (Unspecified)
system.caches.RequestType.ST.miss_latency_hist_seqr |        4757     13.19%     13.19% |       30150     83.59%     96.78% |        1035      2.87%     99.65% |          31      0.09%     99.73% |          46      0.13%     99.86% |          25      0.07%     99.93% |          11      0.03%     99.96% |          15      0.04%    100.00% |           0      0.00%    100.00% |           0      0.00%    100.00% (Unspecified)
system.caches.RequestType.ST.miss_latency_hist_seqr::total        36070                       (Unspecified)
system.caches.RequestType.IFETCH.latency_hist_seqr::bucket_size           64                       (Unspecified)
system.caches.RequestType.IFETCH.latency_hist_seqr::max_bucket          639                       (Unspecified)
system.caches.RequestType.IFETCH.latency_hist_seqr::samples         4959                       (Unspecified)
system.caches.RequestType.IFETCH.latency_hist_seqr::mean   144.135310                       (Unspecified)
system.caches.RequestType.IFETCH.latency_hist_seqr::gmean   113.795689                       (Unspecified)
system.caches.RequestType.IFETCH.latency_hist_seqr::stdev    62.773532                       (Unspecified)
system.caches.RequestType.IFETCH.latency_hist_seqr |         662     13.35%     13.35% |         494      9.96%     23.31% |        2890     58.28%     81.59% |         789     15.91%     97.50% |         122      2.46%     99.96% |           2      0.04%    100.00% |           0      0.00%    100.00% |           0      0.00%    100.00% |           0      0.00%    100.00% |           0      0.00%    100.00% (Unspecified)
system.caches.RequestType.IFETCH.latency_hist_seqr::total         4959                       (Unspecified)
system.caches.RequestType.IFETCH.hit_latency_hist_seqr::bucket_size            1                       (Unspecified)
system.caches.RequestType.IFETCH.hit_latency_hist_seqr::max_bucket            9                       (Unspecified)
system.caches.RequestType.IFETCH.hit_latency_hist_seqr::samples           42                       (Unspecified)
system.caches.RequestType.IFETCH.hit_latency_hist_seqr::mean            1                       (Unspecified)
system.caches.RequestType.IFETCH.hit_latency_hist_seqr::gmean            1                       (Unspecified)
system.caches.RequestType.IFETCH.hit_latency_hist_seqr |           0      0.00%      0.00% |          42    100.00%    100.00% |           0      0.00%    100.00% |           0      0.00%    100.00% |           0      0.00%    100.00% |           0      0.00%    100.00% |           0      0.00%    100.00% |           0      0.00%    100.00% |           0      0.00%    100.00% |           0      0.00%    100.00% (Unspecified)
system.caches.RequestType.IFETCH.hit_latency_hist_seqr::total           42                       (Unspecified)
system.caches.RequestType.IFETCH.miss_latency_hist_seqr::bucket_size           64                       (Unspecified)
system.caches.RequestType.IFETCH.miss_latency_hist_seqr::max_bucket          639                       (Unspecified)
system.caches.RequestType.IFETCH.miss_latency_hist_seqr::samples         4917                       (Unspecified)
system.caches.RequestType.IFETCH.miss_latency_hist_seqr::mean   145.357942                       (Unspecified)
system.caches.RequestType.IFETCH.miss_latency_hist_seqr::gmean   118.491941                       (Unspecified)
system.caches.RequestType.IFETCH.miss_latency_hist_seqr::stdev    61.625074                       (Unspecified)
system.caches.RequestType.IFETCH.miss_latency_hist_seqr |         620     12.61%     12.61% |         494     10.05%     22.66% |        2890     58.78%     81.43% |         789     16.05%     97.48% |         122      2.48%     99.96% |           2      0.04%    100.00% |           0      0.00%    100.00% |           0      0.00%    100.00% |           0      0.00%    100.00% |           0      0.00%    100.00% (Unspecified)
system.caches.RequestType.IFETCH.miss_latency_hist_seqr::total         4917                       (Unspecified)
system.caches.controllers0.DCache.m_demand_hits            0                       # Number of cache demand hits (Unspecified)
system.caches.controllers0.DCache.m_demand_misses            0                       # Number of cache demand misses (Unspecified)
system.caches.controllers0.DCache.m_demand_accesses            0                       # Number of cache demand accesses (Unspecified)
system.caches.controllers0.ICache.m_demand_hits            0                       # Number of cache demand hits (Unspecified)
system.caches.controllers0.ICache.m_demand_misses            0                       # Number of cache demand misses (Unspecified)
system.caches.controllers0.ICache.m_demand_accesses            0                       # Number of cache demand accesses (Unspecified)
system.caches.controllers0.forwardFromL1.m_buf_msgs     0.005672                       # Average number of messages in buffer (Unspecified)
system.caches.controllers0.forwardFromL1.m_stall_time  5020.394409                       # Average number of cycles messages are stalled in this MB (Unspecified)
system.caches.controllers0.forwardFromL1.m_stall_count            1                       # Number of times messages were stalled (Unspecified)
system.caches.controllers0.mandatoryQueue.m_buf_msgs     0.013136                       # Average number of messages in buffer (Unspecified)
system.caches.controllers0.mandatoryQueue.m_stall_time   999.997822                       # Average number of cycles messages are stalled in this MB (Unspecified)
system.caches.controllers0.power_state.pwrStateResidencyTicks::UNDEFINED    918438001                       # Cumulative time (in ticks) in various power states (Tick)
system.caches.controllers0.requestToL1.m_buf_msgs     0.006839                       # Average number of messages in buffer (Unspecified)
system.caches.controllers0.requestToL1.m_stall_time   999.996734                       # Average number of cycles messages are stalled in this MB (Unspecified)
system.caches.controllers0.responseFromL1.m_buf_msgs     0.006179                       # Average number of messages in buffer (Unspecified)
system.caches.controllers0.responseFromL1.m_stall_time  4994.975164                       # Average number of cycles messages are stalled in this MB (Unspecified)
system.caches.controllers0.responseToL1.m_buf_msgs     0.005507                       # Average number of messages in buffer (Unspecified)
system.caches.controllers0.responseToL1.m_stall_time   995.324671                       # Average number of cycles messages are stalled in this MB (Unspecified)
system.caches.controllers0.xyzStatsObject.power_state.pwrStateResidencyTicks::UNDEFINED    918438001                       # Cumulative time (in ticks) in various power states (Tick)
system.caches.controllers1.DCache.m_demand_hits            0                       # Number of cache demand hits (Unspecified)
system.caches.controllers1.DCache.m_demand_misses            0                       # Number of cache demand misses (Unspecified)
system.caches.controllers1.DCache.m_demand_accesses            0                       # Number of cache demand accesses (Unspecified)
system.caches.controllers1.ICache.m_demand_hits            0                       # Number of cache demand hits (Unspecified)
system.caches.controllers1.ICache.m_demand_misses            0                       # Number of cache demand misses (Unspecified)
system.caches.controllers1.ICache.m_demand_accesses            0                       # Number of cache demand accesses (Unspecified)
system.caches.controllers1.forwardFromL1.m_buf_msgs     0.005538                       # Average number of messages in buffer (Unspecified)
system.caches.controllers1.forwardFromL1.m_stall_time  4997.317184                       # Average number of cycles messages are stalled in this MB (Unspecified)
system.caches.controllers1.mandatoryQueue.m_buf_msgs     0.013217                       # Average number of messages in buffer (Unspecified)
system.caches.controllers1.mandatoryQueue.m_stall_time   999.997822                       # Average number of cycles messages are stalled in this MB (Unspecified)
system.caches.controllers1.power_state.pwrStateResidencyTicks::UNDEFINED    918438001                       # Cumulative time (in ticks) in various power states (Tick)
system.caches.controllers1.requestToL1.m_buf_msgs     0.006837                       # Average number of messages in buffer (Unspecified)
system.caches.controllers1.requestToL1.m_stall_time   999.996734                       # Average number of cycles messages are stalled in this MB (Unspecified)
system.caches.controllers1.responseFromL1.m_buf_msgs     0.006192                       # Average number of messages in buffer (Unspecified)
system.caches.controllers1.responseFromL1.m_stall_time  4999.281389                       # Average number of cycles messages are stalled in this MB (Unspecified)
system.caches.controllers1.responseToL1.m_buf_msgs     0.005538                       # Average number of messages in buffer (Unspecified)
system.caches.controllers1.responseToL1.m_stall_time   996.366657                       # Average number of cycles messages are stalled in this MB (Unspecified)
system.caches.controllers1.xyzStatsObject.power_state.pwrStateResidencyTicks::UNDEFINED    918438001                       # Cumulative time (in ticks) in various power states (Tick)
system.caches.controllers10.cacheMemory.m_demand_hits            0                       # Number of cache demand hits (Unspecified)
system.caches.controllers10.cacheMemory.m_demand_misses            0                       # Number of cache demand misses (Unspecified)
system.caches.controllers10.cacheMemory.m_demand_accesses            0                       # Number of cache demand accesses (Unspecified)
system.caches.controllers10.forwardFromDir.m_buf_msgs     0.061201                       # Average number of messages in buffer (Unspecified)
system.caches.controllers10.forwardFromDir.m_stall_time 13749.648863                       # Average number of cycles messages are stalled in this MB (Unspecified)
system.caches.controllers10.forwardFromDir.m_stall_count         5288                       # Number of times messages were stalled (Unspecified)
system.caches.controllers10.forwardToL0.m_buf_msgs     0.005513                       # Average number of messages in buffer (Unspecified)
system.caches.controllers10.forwardToL0.m_stall_time   997.642737                       # Average number of cycles messages are stalled in this MB (Unspecified)
system.caches.controllers10.power_state.pwrStateResidencyTicks::UNDEFINED    918438001                       # Cumulative time (in ticks) in various power states (Tick)
system.caches.controllers10.requestFromL0.m_buf_msgs     0.006846                       # Average number of messages in buffer (Unspecified)
system.caches.controllers10.requestFromL0.m_stall_time  5361.361354                       # Average number of cycles messages are stalled in this MB (Unspecified)
system.caches.controllers10.requestToDir.m_buf_msgs     0.005966                       # Average number of messages in buffer (Unspecified)
system.caches.controllers10.requestToDir.m_stall_time   999.991290                       # Average number of cycles messages are stalled in this MB (Unspecified)
system.caches.controllers10.responseFromDirOrSibling.m_buf_msgs     0.005964                       # Average number of messages in buffer (Unspecified)
system.caches.controllers10.responseFromDirOrSibling.m_stall_time  5069.082507                       # Average number of cycles messages are stalled in this MB (Unspecified)
system.caches.controllers10.responseFromL0.m_buf_msgs     0.005510                       # Average number of messages in buffer (Unspecified)
system.caches.controllers10.responseFromL0.m_stall_time  4988.164688                       # Average number of cycles messages are stalled in this MB (Unspecified)
system.caches.controllers10.responseToDirOrSibling.m_buf_msgs     0.005952                       # Average number of messages in buffer (Unspecified)
system.caches.controllers10.responseToDirOrSibling.m_stall_time   997.631849                       # Average number of cycles messages are stalled in this MB (Unspecified)
system.caches.controllers10.responseToL0.m_buf_msgs     0.006183                       # Average number of messages in buffer (Unspecified)
system.caches.controllers10.responseToL0.m_stall_time   999.737598                       # Average number of cycles messages are stalled in this MB (Unspecified)
system.caches.controllers10.xyzStatsObject.power_state.pwrStateResidencyTicks::UNDEFINED    918438001                       # Cumulative time (in ticks) in various power states (Tick)
system.caches.controllers11.cacheMemory.m_demand_hits            0                       # Number of cache demand hits (Unspecified)
system.caches.controllers11.cacheMemory.m_demand_misses            0                       # Number of cache demand misses (Unspecified)
system.caches.controllers11.cacheMemory.m_demand_accesses            0                       # Number of cache demand accesses (Unspecified)
system.caches.controllers11.forwardFromDir.m_buf_msgs     0.060921                       # Average number of messages in buffer (Unspecified)
system.caches.controllers11.forwardFromDir.m_stall_time 13768.784613                       # Average number of cycles messages are stalled in this MB (Unspecified)
system.caches.controllers11.forwardFromDir.m_stall_count         5273                       # Number of times messages were stalled (Unspecified)
system.caches.controllers11.forwardToL0.m_buf_msgs     0.005488                       # Average number of messages in buffer (Unspecified)
system.caches.controllers11.forwardToL0.m_stall_time   997.622050                       # Average number of cycles messages are stalled in this MB (Unspecified)
system.caches.controllers11.power_state.pwrStateResidencyTicks::UNDEFINED    918438001                       # Cumulative time (in ticks) in various power states (Tick)
system.caches.controllers11.requestFromL0.m_buf_msgs     0.006863                       # Average number of messages in buffer (Unspecified)
system.caches.controllers11.requestFromL0.m_stall_time  5376.348757                       # Average number of cycles messages are stalled in this MB (Unspecified)
system.caches.controllers11.requestToDir.m_buf_msgs     0.005966                       # Average number of messages in buffer (Unspecified)
system.caches.controllers11.requestToDir.m_stall_time   999.991290                       # Average number of cycles messages are stalled in this MB (Unspecified)
system.caches.controllers11.responseFromDirOrSibling.m_buf_msgs     0.005964                       # Average number of messages in buffer (Unspecified)
system.caches.controllers11.responseFromDirOrSibling.m_stall_time  5047.675510                       # Average number of cycles messages are stalled in this MB (Unspecified)
system.caches.controllers11.responseFromL0.m_buf_msgs     0.005485                       # Average number of messages in buffer (Unspecified)
system.caches.controllers11.responseFromL0.m_stall_time  4988.700380                       # Average number of cycles messages are stalled in this MB (Unspecified)
system.caches.controllers11.responseToDirOrSibling.m_buf_msgs     0.005948                       # Average number of messages in buffer (Unspecified)
system.caches.controllers11.responseToDirOrSibling.m_stall_time   997.611162                       # Average number of cycles messages are stalled in this MB (Unspecified)
system.caches.controllers11.responseToL0.m_buf_msgs     0.006181                       # Average number of messages in buffer (Unspecified)
system.caches.controllers11.responseToL0.m_stall_time   999.614563                       # Average number of cycles messages are stalled in this MB (Unspecified)
system.caches.controllers11.xyzStatsObject.power_state.pwrStateResidencyTicks::UNDEFINED    918438001                       # Cumulative time (in ticks) in various power states (Tick)
system.caches.controllers12.cacheMemory.m_demand_hits            0                       # Number of cache demand hits (Unspecified)
system.caches.controllers12.cacheMemory.m_demand_misses            0                       # Number of cache demand misses (Unspecified)
system.caches.controllers12.cacheMemory.m_demand_accesses            0                       # Number of cache demand accesses (Unspecified)
system.caches.controllers12.forwardFromDir.m_buf_msgs     0.061225                       # Average number of messages in buffer (Unspecified)
system.caches.controllers12.forwardFromDir.m_stall_time 13753.178769                       # Average number of cycles messages are stalled in this MB (Unspecified)
system.caches.controllers12.forwardFromDir.m_stall_count         5272                       # Number of times messages were stalled (Unspecified)
system.caches.controllers12.forwardToL0.m_buf_msgs     0.005521                       # Average number of messages in buffer (Unspecified)
system.caches.controllers12.forwardToL0.m_stall_time   994.296839                       # Average number of cycles messages are stalled in this MB (Unspecified)
system.caches.controllers12.power_state.pwrStateResidencyTicks::UNDEFINED    918438001                       # Cumulative time (in ticks) in various power states (Tick)
system.caches.controllers12.requestFromL0.m_buf_msgs     0.006791                       # Average number of messages in buffer (Unspecified)
system.caches.controllers12.requestFromL0.m_stall_time  5350.673643                       # Average number of cycles messages are stalled in this MB (Unspecified)
system.caches.controllers12.requestToDir.m_buf_msgs     0.005966                       # Average number of messages in buffer (Unspecified)
system.caches.controllers12.requestToDir.m_stall_time   999.991290                       # Average number of cycles messages are stalled in this MB (Unspecified)
system.caches.controllers12.responseFromDirOrSibling.m_buf_msgs     0.005964                       # Average number of messages in buffer (Unspecified)
system.caches.controllers12.responseFromDirOrSibling.m_stall_time  5061.423852                       # Average number of cycles messages are stalled in this MB (Unspecified)
system.caches.controllers12.responseFromL0.m_buf_msgs     0.005518                       # Average number of messages in buffer (Unspecified)
system.caches.controllers12.responseFromL0.m_stall_time  4971.435198                       # Average number of cycles messages are stalled in this MB (Unspecified)
system.caches.controllers12.responseToDirOrSibling.m_buf_msgs     0.005947                       # Average number of messages in buffer (Unspecified)
system.caches.controllers12.responseToDirOrSibling.m_stall_time   994.285951                       # Average number of cycles messages are stalled in this MB (Unspecified)
system.caches.controllers12.responseToL0.m_buf_msgs     0.006163                       # Average number of messages in buffer (Unspecified)
system.caches.controllers12.responseToL0.m_stall_time   999.491528                       # Average number of cycles messages are stalled in this MB (Unspecified)
system.caches.controllers12.xyzStatsObject.power_state.pwrStateResidencyTicks::UNDEFINED    918438001                       # Cumulative time (in ticks) in various power states (Tick)
system.caches.controllers13.cacheMemory.m_demand_hits            0                       # Number of cache demand hits (Unspecified)
system.caches.controllers13.cacheMemory.m_demand_misses            0                       # Number of cache demand misses (Unspecified)
system.caches.controllers13.cacheMemory.m_demand_accesses            0                       # Number of cache demand accesses (Unspecified)
system.caches.controllers13.forwardFromDir.m_buf_msgs     0.061157                       # Average number of messages in buffer (Unspecified)
system.caches.controllers13.forwardFromDir.m_stall_time 13715.862151                       # Average number of cycles messages are stalled in this MB (Unspecified)
system.caches.controllers13.forwardFromDir.m_stall_count         5269                       # Number of times messages were stalled (Unspecified)
system.caches.controllers13.forwardToL0.m_buf_msgs     0.005508                       # Average number of messages in buffer (Unspecified)
system.caches.controllers13.forwardToL0.m_stall_time   994.097587                       # Average number of cycles messages are stalled in this MB (Unspecified)
system.caches.controllers13.power_state.pwrStateResidencyTicks::UNDEFINED    918438001                       # Cumulative time (in ticks) in various power states (Tick)
system.caches.controllers13.requestFromL0.m_buf_msgs     0.006908                       # Average number of messages in buffer (Unspecified)
system.caches.controllers13.requestFromL0.m_stall_time  5371.660362                       # Average number of cycles messages are stalled in this MB (Unspecified)
system.caches.controllers13.requestToDir.m_buf_msgs     0.005966                       # Average number of messages in buffer (Unspecified)
system.caches.controllers13.requestToDir.m_stall_time   999.991290                       # Average number of cycles messages are stalled in this MB (Unspecified)
system.caches.controllers13.responseFromDirOrSibling.m_buf_msgs     0.005964                       # Average number of messages in buffer (Unspecified)
system.caches.controllers13.responseFromDirOrSibling.m_stall_time  5051.541857                       # Average number of cycles messages are stalled in this MB (Unspecified)
system.caches.controllers13.responseFromL0.m_buf_msgs     0.005503                       # Average number of messages in buffer (Unspecified)
system.caches.controllers13.responseFromL0.m_stall_time  4970.438941                       # Average number of cycles messages are stalled in this MB (Unspecified)
system.caches.controllers13.responseToDirOrSibling.m_buf_msgs     0.005954                       # Average number of messages in buffer (Unspecified)
system.caches.controllers13.responseToDirOrSibling.m_stall_time   994.086699                       # Average number of cycles messages are stalled in this MB (Unspecified)
system.caches.controllers13.responseToL0.m_buf_msgs     0.006211                       # Average number of messages in buffer (Unspecified)
system.caches.controllers13.responseToL0.m_stall_time   999.368493                       # Average number of cycles messages are stalled in this MB (Unspecified)
system.caches.controllers13.xyzStatsObject.power_state.pwrStateResidencyTicks::UNDEFINED    918438001                       # Cumulative time (in ticks) in various power states (Tick)
system.caches.controllers14.cacheMemory.m_demand_hits            0                       # Number of cache demand hits (Unspecified)
system.caches.controllers14.cacheMemory.m_demand_misses            0                       # Number of cache demand misses (Unspecified)
system.caches.controllers14.cacheMemory.m_demand_accesses            0                       # Number of cache demand accesses (Unspecified)
system.caches.controllers14.forwardFromDir.m_buf_msgs     0.061168                       # Average number of messages in buffer (Unspecified)
system.caches.controllers14.forwardFromDir.m_stall_time 13700.152871                       # Average number of cycles messages are stalled in this MB (Unspecified)
system.caches.controllers14.forwardFromDir.m_stall_count         5309                       # Number of times messages were stalled (Unspecified)
system.caches.controllers14.forwardToL0.m_buf_msgs     0.005509                       # Average number of messages in buffer (Unspecified)
system.caches.controllers14.forwardToL0.m_stall_time   992.783400                       # Average number of cycles messages are stalled in this MB (Unspecified)
system.caches.controllers14.power_state.pwrStateResidencyTicks::UNDEFINED    918438001                       # Cumulative time (in ticks) in various power states (Tick)
system.caches.controllers14.requestFromL0.m_buf_msgs     0.006846                       # Average number of messages in buffer (Unspecified)
system.caches.controllers14.requestFromL0.m_stall_time  5365.883162                       # Average number of cycles messages are stalled in this MB (Unspecified)
system.caches.controllers14.requestToDir.m_buf_msgs     0.005964                       # Average number of messages in buffer (Unspecified)
system.caches.controllers14.requestToDir.m_stall_time   999.991290                       # Average number of cycles messages are stalled in this MB (Unspecified)
system.caches.controllers14.responseFromDirOrSibling.m_buf_msgs     0.005964                       # Average number of messages in buffer (Unspecified)
system.caches.controllers14.responseFromDirOrSibling.m_stall_time  5061.909459                       # Average number of cycles messages are stalled in this MB (Unspecified)
system.caches.controllers14.responseFromL0.m_buf_msgs     0.005508                       # Average number of messages in buffer (Unspecified)
system.caches.controllers14.responseFromL0.m_stall_time  4963.979060                       # Average number of cycles messages are stalled in this MB (Unspecified)
system.caches.controllers14.responseToDirOrSibling.m_buf_msgs     0.005956                       # Average number of messages in buffer (Unspecified)
system.caches.controllers14.responseToDirOrSibling.m_stall_time   992.772512                       # Average number of cycles messages are stalled in this MB (Unspecified)
system.caches.controllers14.responseToL0.m_buf_msgs     0.006181                       # Average number of messages in buffer (Unspecified)
system.caches.controllers14.responseToL0.m_stall_time   999.245458                       # Average number of cycles messages are stalled in this MB (Unspecified)
system.caches.controllers14.xyzStatsObject.power_state.pwrStateResidencyTicks::UNDEFINED    918438001                       # Cumulative time (in ticks) in various power states (Tick)
system.caches.controllers15.cacheMemory.m_demand_hits            0                       # Number of cache demand hits (Unspecified)
system.caches.controllers15.cacheMemory.m_demand_misses            0                       # Number of cache demand misses (Unspecified)
system.caches.controllers15.cacheMemory.m_demand_accesses            0                       # Number of cache demand accesses (Unspecified)
system.caches.controllers15.forwardFromDir.m_buf_msgs     0.061249                       # Average number of messages in buffer (Unspecified)
system.caches.controllers15.forwardFromDir.m_stall_time 13780.359700                       # Average number of cycles messages are stalled in this MB (Unspecified)
system.caches.controllers15.forwardFromDir.m_stall_count         5281                       # Number of times messages were stalled (Unspecified)
system.caches.controllers15.forwardToL0.m_buf_msgs     0.005512                       # Average number of messages in buffer (Unspecified)
system.caches.controllers15.forwardToL0.m_stall_time   995.473837                       # Average number of cycles messages are stalled in this MB (Unspecified)
system.caches.controllers15.power_state.pwrStateResidencyTicks::UNDEFINED    918438001                       # Cumulative time (in ticks) in various power states (Tick)
system.caches.controllers15.requestFromL0.m_buf_msgs     0.006858                       # Average number of messages in buffer (Unspecified)
system.caches.controllers15.requestFromL0.m_stall_time  5354.559588                       # Average number of cycles messages are stalled in this MB (Unspecified)
system.caches.controllers15.requestToDir.m_buf_msgs     0.005964                       # Average number of messages in buffer (Unspecified)
system.caches.controllers15.requestToDir.m_stall_time   999.991290                       # Average number of cycles messages are stalled in this MB (Unspecified)
system.caches.controllers15.responseFromDirOrSibling.m_buf_msgs     0.005963                       # Average number of messages in buffer (Unspecified)
system.caches.controllers15.responseFromDirOrSibling.m_stall_time  5063.332527                       # Average number of cycles messages are stalled in this MB (Unspecified)
system.caches.controllers15.responseFromL0.m_buf_msgs     0.005510                       # Average number of messages in buffer (Unspecified)
system.caches.controllers15.responseFromL0.m_stall_time  4977.377896                       # Average number of cycles messages are stalled in this MB (Unspecified)
system.caches.controllers15.responseToDirOrSibling.m_buf_msgs     0.005945                       # Average number of messages in buffer (Unspecified)
system.caches.controllers15.responseToDirOrSibling.m_stall_time   995.462949                       # Average number of cycles messages are stalled in this MB (Unspecified)
system.caches.controllers15.responseToL0.m_buf_msgs     0.006192                       # Average number of messages in buffer (Unspecified)
system.caches.controllers15.responseToL0.m_stall_time   999.122423                       # Average number of cycles messages are stalled in this MB (Unspecified)
system.caches.controllers15.xyzStatsObject.power_state.pwrStateResidencyTicks::UNDEFINED    918438001                       # Cumulative time (in ticks) in various power states (Tick)
system.caches.controllers16.cacheMemory.m_demand_hits            0                       # Number of cache demand hits (Unspecified)
system.caches.controllers16.cacheMemory.m_demand_misses            0                       # Number of cache demand misses (Unspecified)
system.caches.controllers16.cacheMemory.m_demand_accesses            0                       # Number of cache demand accesses (Unspecified)
system.caches.controllers16.forwardToCache.m_buf_msgs     0.047603                       # Average number of messages in buffer (Unspecified)
system.caches.controllers16.forwardToCache.m_stall_time   997.648181                       # Average number of cycles messages are stalled in this MB (Unspecified)
system.caches.controllers16.power_state.pwrStateResidencyTicks::UNDEFINED    918438001                       # Cumulative time (in ticks) in various power states (Tick)
system.caches.controllers16.requestFromCache.m_buf_msgs     0.047714                       # Average number of messages in buffer (Unspecified)
system.caches.controllers16.requestFromCache.m_stall_time 142338.389737                       # Average number of cycles messages are stalled in this MB (Unspecified)
system.caches.controllers16.requestFromCache.m_occupancy     0.047714                       # Average occupancy of buffer capacity (Unspecified)
system.caches.controllers16.requestToMemory.m_buf_msgs     0.000111                       # Average number of messages in buffer (Unspecified)
system.caches.controllers16.requestToMemory.m_stall_time   999.985846                       # Average number of cycles messages are stalled in this MB (Unspecified)
system.caches.controllers16.responseFromMemory.m_buf_msgs     0.000111                       # Average number of messages in buffer (Unspecified)
system.caches.controllers16.responseFromMemory.m_stall_time   999.875876                       # Average number of cycles messages are stalled in this MB (Unspecified)
system.caches.controllers16.responseToCache.m_buf_msgs     0.001000                       # Average number of messages in buffer (Unspecified)
system.caches.controllers16.responseToCache.m_stall_time  8998.794693                       # Average number of cycles messages are stalled in this MB (Unspecified)
system.caches.controllers16.xyzCacheMemory.m_demand_hits            0                       # Number of cache demand hits (Unspecified)
system.caches.controllers16.xyzCacheMemory.m_demand_misses            0                       # Number of cache demand misses (Unspecified)
system.caches.controllers16.xyzCacheMemory.m_demand_accesses            0                       # Number of cache demand accesses (Unspecified)
system.caches.controllers16.xyzStatsObject.power_state.pwrStateResidencyTicks::UNDEFINED    918438001                       # Cumulative time (in ticks) in various power states (Tick)
system.caches.controllers2.DCache.m_demand_hits            0                       # Number of cache demand hits (Unspecified)
system.caches.controllers2.DCache.m_demand_misses            0                       # Number of cache demand misses (Unspecified)
system.caches.controllers2.DCache.m_demand_accesses            0                       # Number of cache demand accesses (Unspecified)
system.caches.controllers2.ICache.m_demand_hits            0                       # Number of cache demand hits (Unspecified)
system.caches.controllers2.ICache.m_demand_misses            0                       # Number of cache demand misses (Unspecified)
system.caches.controllers2.ICache.m_demand_accesses            0                       # Number of cache demand accesses (Unspecified)
system.caches.controllers2.forwardFromL1.m_buf_msgs     0.005814                       # Average number of messages in buffer (Unspecified)
system.caches.controllers2.forwardFromL1.m_stall_time  5061.839776                       # Average number of cycles messages are stalled in this MB (Unspecified)
system.caches.controllers2.forwardFromL1.m_stall_count            2                       # Number of times messages were stalled (Unspecified)
system.caches.controllers2.mandatoryQueue.m_buf_msgs     0.013221                       # Average number of messages in buffer (Unspecified)
system.caches.controllers2.mandatoryQueue.m_stall_time   999.997822                       # Average number of cycles messages are stalled in this MB (Unspecified)
system.caches.controllers2.power_state.pwrStateResidencyTicks::UNDEFINED    918438001                       # Cumulative time (in ticks) in various power states (Tick)
system.caches.controllers2.requestToL1.m_buf_msgs     0.006846                       # Average number of messages in buffer (Unspecified)
system.caches.controllers2.requestToL1.m_stall_time   999.996734                       # Average number of cycles messages are stalled in this MB (Unspecified)
system.caches.controllers2.responseFromL1.m_buf_msgs     0.006183                       # Average number of messages in buffer (Unspecified)
system.caches.controllers2.responseFromL1.m_stall_time  4998.666214                       # Average number of cycles messages are stalled in this MB (Unspecified)
system.caches.controllers2.responseToL1.m_buf_msgs     0.005510                       # Average number of messages in buffer (Unspecified)
system.caches.controllers2.responseToL1.m_stall_time   997.637293                       # Average number of cycles messages are stalled in this MB (Unspecified)
system.caches.controllers2.xyzStatsObject.power_state.pwrStateResidencyTicks::UNDEFINED    918438001                       # Cumulative time (in ticks) in various power states (Tick)
system.caches.controllers3.DCache.m_demand_hits            0                       # Number of cache demand hits (Unspecified)
system.caches.controllers3.DCache.m_demand_misses            0                       # Number of cache demand misses (Unspecified)
system.caches.controllers3.DCache.m_demand_accesses            0                       # Number of cache demand accesses (Unspecified)
system.caches.controllers3.ICache.m_demand_hits            0                       # Number of cache demand hits (Unspecified)
system.caches.controllers3.ICache.m_demand_misses            0                       # Number of cache demand misses (Unspecified)
system.caches.controllers3.ICache.m_demand_accesses            0                       # Number of cache demand accesses (Unspecified)
system.caches.controllers3.forwardFromL1.m_buf_msgs     0.005738                       # Average number of messages in buffer (Unspecified)
system.caches.controllers3.forwardFromL1.m_stall_time  5033.591816                       # Average number of cycles messages are stalled in this MB (Unspecified)
system.caches.controllers3.forwardFromL1.m_stall_count            2                       # Number of times messages were stalled (Unspecified)
system.caches.controllers3.mandatoryQueue.m_buf_msgs     0.013341                       # Average number of messages in buffer (Unspecified)
system.caches.controllers3.mandatoryQueue.m_stall_time   999.997822                       # Average number of cycles messages are stalled in this MB (Unspecified)
system.caches.controllers3.power_state.pwrStateResidencyTicks::UNDEFINED    918438001                       # Cumulative time (in ticks) in various power states (Tick)
system.caches.controllers3.requestToL1.m_buf_msgs     0.006863                       # Average number of messages in buffer (Unspecified)
system.caches.controllers3.requestToL1.m_stall_time   999.996734                       # Average number of cycles messages are stalled in this MB (Unspecified)
system.caches.controllers3.responseFromL1.m_buf_msgs     0.006181                       # Average number of messages in buffer (Unspecified)
system.caches.controllers3.responseFromL1.m_stall_time  4998.051039                       # Average number of cycles messages are stalled in this MB (Unspecified)
system.caches.controllers3.responseToL1.m_buf_msgs     0.005485                       # Average number of messages in buffer (Unspecified)
system.caches.controllers3.responseToL1.m_stall_time   997.616606                       # Average number of cycles messages are stalled in this MB (Unspecified)
system.caches.controllers3.xyzStatsObject.power_state.pwrStateResidencyTicks::UNDEFINED    918438001                       # Cumulative time (in ticks) in various power states (Tick)
system.caches.controllers4.DCache.m_demand_hits            0                       # Number of cache demand hits (Unspecified)
system.caches.controllers4.DCache.m_demand_misses            0                       # Number of cache demand misses (Unspecified)
system.caches.controllers4.DCache.m_demand_accesses            0                       # Number of cache demand accesses (Unspecified)
system.caches.controllers4.ICache.m_demand_hits            0                       # Number of cache demand hits (Unspecified)
system.caches.controllers4.ICache.m_demand_misses            0                       # Number of cache demand misses (Unspecified)
system.caches.controllers4.ICache.m_demand_accesses            0                       # Number of cache demand accesses (Unspecified)
system.caches.controllers4.forwardFromL1.m_buf_msgs     0.005521                       # Average number of messages in buffer (Unspecified)
system.caches.controllers4.forwardFromL1.m_stall_time  4979.209266                       # Average number of cycles messages are stalled in this MB (Unspecified)
system.caches.controllers4.mandatoryQueue.m_buf_msgs     0.013184                       # Average number of messages in buffer (Unspecified)
system.caches.controllers4.mandatoryQueue.m_stall_time   999.997822                       # Average number of cycles messages are stalled in this MB (Unspecified)
system.caches.controllers4.power_state.pwrStateResidencyTicks::UNDEFINED    918438001                       # Cumulative time (in ticks) in various power states (Tick)
system.caches.controllers4.requestToL1.m_buf_msgs     0.006791                       # Average number of messages in buffer (Unspecified)
system.caches.controllers4.requestToL1.m_stall_time   999.996734                       # Average number of cycles messages are stalled in this MB (Unspecified)
system.caches.controllers4.responseFromL1.m_buf_msgs     0.006163                       # Average number of messages in buffer (Unspecified)
system.caches.controllers4.responseFromL1.m_stall_time  4997.435864                       # Average number of cycles messages are stalled in this MB (Unspecified)
system.caches.controllers4.responseToL1.m_buf_msgs     0.005518                       # Average number of messages in buffer (Unspecified)
system.caches.controllers4.responseToL1.m_stall_time   994.291395                       # Average number of cycles messages are stalled in this MB (Unspecified)
system.caches.controllers4.xyzStatsObject.power_state.pwrStateResidencyTicks::UNDEFINED    918438001                       # Cumulative time (in ticks) in various power states (Tick)
system.caches.controllers5.DCache.m_demand_hits            0                       # Number of cache demand hits (Unspecified)
system.caches.controllers5.DCache.m_demand_misses            0                       # Number of cache demand misses (Unspecified)
system.caches.controllers5.DCache.m_demand_accesses            0                       # Number of cache demand accesses (Unspecified)
system.caches.controllers5.ICache.m_demand_hits            0                       # Number of cache demand hits (Unspecified)
system.caches.controllers5.ICache.m_demand_misses            0                       # Number of cache demand misses (Unspecified)
system.caches.controllers5.ICache.m_demand_accesses            0                       # Number of cache demand accesses (Unspecified)
system.caches.controllers5.forwardFromL1.m_buf_msgs     0.005971                       # Average number of messages in buffer (Unspecified)
system.caches.controllers5.forwardFromL1.m_stall_time  5046.392897                       # Average number of cycles messages are stalled in this MB (Unspecified)
system.caches.controllers5.forwardFromL1.m_stall_count            2                       # Number of times messages were stalled (Unspecified)
system.caches.controllers5.mandatoryQueue.m_buf_msgs     0.013350                       # Average number of messages in buffer (Unspecified)
system.caches.controllers5.mandatoryQueue.m_stall_time   999.997822                       # Average number of cycles messages are stalled in this MB (Unspecified)
system.caches.controllers5.power_state.pwrStateResidencyTicks::UNDEFINED    918438001                       # Cumulative time (in ticks) in various power states (Tick)
system.caches.controllers5.requestToL1.m_buf_msgs     0.006908                       # Average number of messages in buffer (Unspecified)
system.caches.controllers5.requestToL1.m_stall_time   999.996734                       # Average number of cycles messages are stalled in this MB (Unspecified)
system.caches.controllers5.responseFromL1.m_buf_msgs     0.006211                       # Average number of messages in buffer (Unspecified)
system.caches.controllers5.responseFromL1.m_stall_time  4996.820689                       # Average number of cycles messages are stalled in this MB (Unspecified)
system.caches.controllers5.responseToL1.m_buf_msgs     0.005503                       # Average number of messages in buffer (Unspecified)
system.caches.controllers5.responseToL1.m_stall_time   994.092143                       # Average number of cycles messages are stalled in this MB (Unspecified)
system.caches.controllers5.xyzStatsObject.power_state.pwrStateResidencyTicks::UNDEFINED    918438001                       # Cumulative time (in ticks) in various power states (Tick)
system.caches.controllers6.DCache.m_demand_hits            0                       # Number of cache demand hits (Unspecified)
system.caches.controllers6.DCache.m_demand_misses            0                       # Number of cache demand misses (Unspecified)
system.caches.controllers6.DCache.m_demand_accesses            0                       # Number of cache demand accesses (Unspecified)
system.caches.controllers6.ICache.m_demand_hits            0                       # Number of cache demand hits (Unspecified)
system.caches.controllers6.ICache.m_demand_misses            0                       # Number of cache demand misses (Unspecified)
system.caches.controllers6.ICache.m_demand_accesses            0                       # Number of cache demand accesses (Unspecified)
system.caches.controllers6.forwardFromL1.m_buf_msgs     0.005828                       # Average number of messages in buffer (Unspecified)
system.caches.controllers6.forwardFromL1.m_stall_time  5112.529098                       # Average number of cycles messages are stalled in this MB (Unspecified)
system.caches.controllers6.forwardFromL1.m_stall_count            2                       # Number of times messages were stalled (Unspecified)
system.caches.controllers6.mandatoryQueue.m_buf_msgs     0.013139                       # Average number of messages in buffer (Unspecified)
system.caches.controllers6.mandatoryQueue.m_stall_time   999.997822                       # Average number of cycles messages are stalled in this MB (Unspecified)
system.caches.controllers6.power_state.pwrStateResidencyTicks::UNDEFINED    918438001                       # Cumulative time (in ticks) in various power states (Tick)
system.caches.controllers6.requestToL1.m_buf_msgs     0.006846                       # Average number of messages in buffer (Unspecified)
system.caches.controllers6.requestToL1.m_stall_time   999.996734                       # Average number of cycles messages are stalled in this MB (Unspecified)
system.caches.controllers6.responseFromL1.m_buf_msgs     0.006181                       # Average number of messages in buffer (Unspecified)
system.caches.controllers6.responseFromL1.m_stall_time  4996.205514                       # Average number of cycles messages are stalled in this MB (Unspecified)
system.caches.controllers6.responseToL1.m_buf_msgs     0.005508                       # Average number of messages in buffer (Unspecified)
system.caches.controllers6.responseToL1.m_stall_time   992.777956                       # Average number of cycles messages are stalled in this MB (Unspecified)
system.caches.controllers6.xyzStatsObject.power_state.pwrStateResidencyTicks::UNDEFINED    918438001                       # Cumulative time (in ticks) in various power states (Tick)
system.caches.controllers7.DCache.m_demand_hits            0                       # Number of cache demand hits (Unspecified)
system.caches.controllers7.DCache.m_demand_misses            0                       # Number of cache demand misses (Unspecified)
system.caches.controllers7.DCache.m_demand_accesses            0                       # Number of cache demand accesses (Unspecified)
system.caches.controllers7.ICache.m_demand_hits            0                       # Number of cache demand hits (Unspecified)
system.caches.controllers7.ICache.m_demand_misses            0                       # Number of cache demand misses (Unspecified)
system.caches.controllers7.ICache.m_demand_accesses            0                       # Number of cache demand accesses (Unspecified)
system.caches.controllers7.forwardFromL1.m_buf_msgs     0.005673                       # Average number of messages in buffer (Unspecified)
system.caches.controllers7.forwardFromL1.m_stall_time  4998.563866                       # Average number of cycles messages are stalled in this MB (Unspecified)
system.caches.controllers7.forwardFromL1.m_stall_count            1                       # Number of times messages were stalled (Unspecified)
system.caches.controllers7.mandatoryQueue.m_buf_msgs     0.013197                       # Average number of messages in buffer (Unspecified)
system.caches.controllers7.mandatoryQueue.m_stall_time   999.997822                       # Average number of cycles messages are stalled in this MB (Unspecified)
system.caches.controllers7.power_state.pwrStateResidencyTicks::UNDEFINED    918438001                       # Cumulative time (in ticks) in various power states (Tick)
system.caches.controllers7.requestToL1.m_buf_msgs     0.006858                       # Average number of messages in buffer (Unspecified)
system.caches.controllers7.requestToL1.m_stall_time   999.996734                       # Average number of cycles messages are stalled in this MB (Unspecified)
system.caches.controllers7.responseFromL1.m_buf_msgs     0.006192                       # Average number of messages in buffer (Unspecified)
system.caches.controllers7.responseFromL1.m_stall_time  4995.590339                       # Average number of cycles messages are stalled in this MB (Unspecified)
system.caches.controllers7.responseToL1.m_buf_msgs     0.005510                       # Average number of messages in buffer (Unspecified)
[...]
system.caches.controllers10.xyzStatsObjectlatency::0-49999         5478    100.00%    100.00% # Mem access latency (Unspecified)
system.caches.controllers10.xyzStatsObjectlatency::50000-99999            0      0.00%    100.00% # Mem access latency (Unspecified)
system.caches.controllers10.xyzStatsObjectlatency::100000            0      0.00%    100.00% # Mem access latency (Unspecified)
system.caches.controllers10.xyzStatsObjectlatency::overflows            0      0.00%    100.00% # Mem access latency (Unspecified)
system.caches.controllers10.xyzStatsObjectlatency::min_value           64                       # Mem access latency (Unspecified)
system.caches.controllers10.xyzStatsObjectlatency::max_value          892                       # Mem access latency (Unspecified)
system.caches.controllers10.xyzStatsObjectlatency::total         5478                       # Mem access latency (Unspecified)
system.caches.controllers11.xyzStatsObject.total_put            0                       # Total number of put (PutM + PutS) (Unspecified)
system.caches.controllers11.xyzStatsObject.total_put_as_wt            0                       # Total number of put as write through (Unspecified)
system.caches.controllers11.xyzStatsObject.total_putm            0                       # Total number of PutM (Unspecified)
system.caches.controllers11.xyzStatsObject.total_putm_as_wt            0                       # Total number of PutM as write through (Unspecified)
system.caches.controllers11.xyzStatsObject.total_puts            0                       # Total number of PutS (Unspecified)
system.caches.controllers11.xyzStatsObject.total_puts_as_wt            0                       # Total number of PutS as write through (Unspecified)
system.caches.controllers11.xyzStatsObject.total_repl            0                       # Total Replacement (Unspecified)
system.caches.controllers11.xyzStatsObject.total_repl_llc            0                       # Total Replacement of LLC line (Unspecified)
system.caches.controllers11.xyzStatsObject.total_repl_owned            0                       # Total Replacement of owned line (Unspecified)
system.caches.controllers11.xyzStatsObject.total_repl_shared            0                       # Total Replacement of shared line (Unspecified)
system.caches.controllers11.xyzStatsObject.wt_putRatio          nan                       # WT / Put (Unspecified)
system.caches.controllers11.xyzStatsObject.wt_putmRatio          nan                       # PutM WT / PutM (Unspecified)
system.caches.controllers11.xyzStatsObject.wt_putsRatio          nan                       # PutS WT / PutS (Unspecified)
system.caches.controllers11.xyzStatsObjectlatency::samples         5478                       # Mem access latency (Unspecified)
system.caches.controllers11.xyzStatsObjectlatency::mean   154.454545                       # Mem access latency (Unspecified)
system.caches.controllers11.xyzStatsObjectlatency::stdev    46.599867                       # Mem access latency (Unspecified)
system.caches.controllers11.xyzStatsObjectlatency::underflows            0      0.00%      0.00% # Mem access latency (Unspecified)
system.caches.controllers11.xyzStatsObjectlatency::0-49999         5478    100.00%    100.00% # Mem access latency (Unspecified)
system.caches.controllers11.xyzStatsObjectlatency::50000-99999            0      0.00%    100.00% # Mem access latency (Unspecified)
system.caches.controllers11.xyzStatsObjectlatency::100000            0      0.00%    100.00% # Mem access latency (Unspecified)
system.caches.controllers11.xyzStatsObjectlatency::overflows            0      0.00%    100.00% # Mem access latency (Unspecified)
system.caches.controllers11.xyzStatsObjectlatency::min_value           67                       # Mem access latency (Unspecified)
system.caches.controllers11.xyzStatsObjectlatency::max_value          892                       # Mem access latency (Unspecified)
system.caches.controllers11.xyzStatsObjectlatency::total         5478                       # Mem access latency (Unspecified)
system.caches.controllers12.xyzStatsObject.total_put            0                       # Total number of put (PutM + PutS) (Unspecified)
system.caches.controllers12.xyzStatsObject.total_put_as_wt            0                       # Total number of put as write through (Unspecified)
system.caches.controllers12.xyzStatsObject.total_putm            0                       # Total number of PutM (Unspecified)
system.caches.controllers12.xyzStatsObject.total_putm_as_wt            0                       # Total number of PutM as write through (Unspecified)
system.caches.controllers12.xyzStatsObject.total_puts            0                       # Total number of PutS (Unspecified)
system.caches.controllers12.xyzStatsObject.total_puts_as_wt            0                       # Total number of PutS as write through (Unspecified)
system.caches.controllers12.xyzStatsObject.total_repl            0                       # Total Replacement (Unspecified)
system.caches.controllers12.xyzStatsObject.total_repl_llc            0                       # Total Replacement of LLC line (Unspecified)
system.caches.controllers12.xyzStatsObject.total_repl_owned            0                       # Total Replacement of owned line (Unspecified)
system.caches.controllers12.xyzStatsObject.total_repl_shared            0                       # Total Replacement of shared line (Unspecified)
system.caches.controllers12.xyzStatsObject.wt_putRatio          nan                       # WT / Put (Unspecified)
system.caches.controllers12.xyzStatsObject.wt_putmRatio          nan                       # PutM WT / PutM (Unspecified)
system.caches.controllers12.xyzStatsObject.wt_putsRatio          nan                       # PutS WT / PutS (Unspecified)
system.caches.controllers12.xyzStatsObjectlatency::samples         5478                       # Mem access latency (Unspecified)
system.caches.controllers12.xyzStatsObjectlatency::mean   154.549106                       # Mem access latency (Unspecified)
system.caches.controllers12.xyzStatsObjectlatency::stdev    46.797054                       # Mem access latency (Unspecified)
system.caches.controllers12.xyzStatsObjectlatency::underflows            0      0.00%      0.00% # Mem access latency (Unspecified)
system.caches.controllers12.xyzStatsObjectlatency::0-49999         5478    100.00%    100.00% # Mem access latency (Unspecified)
system.caches.controllers12.xyzStatsObjectlatency::50000-99999            0      0.00%    100.00% # Mem access latency (Unspecified)
system.caches.controllers12.xyzStatsObjectlatency::100000            0      0.00%    100.00% # Mem access latency (Unspecified)
system.caches.controllers12.xyzStatsObjectlatency::overflows            0      0.00%    100.00% # Mem access latency (Unspecified)
system.caches.controllers12.xyzStatsObjectlatency::min_value           72                       # Mem access latency (Unspecified)
system.caches.controllers12.xyzStatsObjectlatency::max_value          892                       # Mem access latency (Unspecified)
system.caches.controllers12.xyzStatsObjectlatency::total         5478                       # Mem access latency (Unspecified)
system.caches.controllers13.xyzStatsObject.total_put            0                       # Total number of put (PutM + PutS) (Unspecified)
system.caches.controllers13.xyzStatsObject.total_put_as_wt            0                       # Total number of put as write through (Unspecified)
system.caches.controllers13.xyzStatsObject.total_putm            0                       # Total number of PutM (Unspecified)
system.caches.controllers13.xyzStatsObject.total_putm_as_wt            0                       # Total number of PutM as write through (Unspecified)
system.caches.controllers13.xyzStatsObject.total_puts            0                       # Total number of PutS (Unspecified)
system.caches.controllers13.xyzStatsObject.total_puts_as_wt            0                       # Total number of PutS as write through (Unspecified)
system.caches.controllers13.xyzStatsObject.total_repl            0                       # Total Replacement (Unspecified)
system.caches.controllers13.xyzStatsObject.total_repl_llc            0                       # Total Replacement of LLC line (Unspecified)
system.caches.controllers13.xyzStatsObject.total_repl_owned            0                       # Total Replacement of owned line (Unspecified)
system.caches.controllers13.xyzStatsObject.total_repl_shared            0                       # Total Replacement of shared line (Unspecified)
system.caches.controllers13.xyzStatsObject.wt_putRatio          nan                       # WT / Put (Unspecified)
system.caches.controllers13.xyzStatsObject.wt_putmRatio          nan                       # PutM WT / PutM (Unspecified)
system.caches.controllers13.xyzStatsObject.wt_putsRatio          nan                       # PutS WT / PutS (Unspecified)
system.caches.controllers13.xyzStatsObjectlatency::samples         5478                       # Mem access latency (Unspecified)
system.caches.controllers13.xyzStatsObjectlatency::mean   154.405988                       # Mem access latency (Unspecified)
system.caches.controllers13.xyzStatsObjectlatency::stdev    46.599254                       # Mem access latency (Unspecified)
system.caches.controllers13.xyzStatsObjectlatency::underflows            0      0.00%      0.00% # Mem access latency (Unspecified)
system.caches.controllers13.xyzStatsObjectlatency::0-49999         5478    100.00%    100.00% # Mem access latency (Unspecified)
system.caches.controllers13.xyzStatsObjectlatency::50000-99999            0      0.00%    100.00% # Mem access latency (Unspecified)
system.caches.controllers13.xyzStatsObjectlatency::100000            0      0.00%    100.00% # Mem access latency (Unspecified)
system.caches.controllers13.xyzStatsObjectlatency::overflows            0      0.00%    100.00% # Mem access latency (Unspecified)
system.caches.controllers13.xyzStatsObjectlatency::min_value           69                       # Mem access latency (Unspecified)
system.caches.controllers13.xyzStatsObjectlatency::max_value          892                       # Mem access latency (Unspecified)
system.caches.controllers13.xyzStatsObjectlatency::total         5478                       # Mem access latency (Unspecified)
system.caches.controllers14.xyzStatsObject.total_put            0                       # Total number of put (PutM + PutS) (Unspecified)
system.caches.controllers14.xyzStatsObject.total_put_as_wt            0                       # Total number of put as write through (Unspecified)
system.caches.controllers14.xyzStatsObject.total_putm            0                       # Total number of PutM (Unspecified)
system.caches.controllers14.xyzStatsObject.total_putm_as_wt            0                       # Total number of PutM as write through (Unspecified)
system.caches.controllers14.xyzStatsObject.total_puts            0                       # Total number of PutS (Unspecified)
system.caches.controllers14.xyzStatsObject.total_puts_as_wt            0                       # Total number of PutS as write through (Unspecified)
system.caches.controllers14.xyzStatsObject.total_repl            0                       # Total Replacement (Unspecified)
system.caches.controllers14.xyzStatsObject.total_repl_llc            0                       # Total Replacement of LLC line (Unspecified)
system.caches.controllers14.xyzStatsObject.total_repl_owned            0                       # Total Replacement of owned line (Unspecified)
system.caches.controllers14.xyzStatsObject.total_repl_shared            0                       # Total Replacement of shared line (Unspecified)
system.caches.controllers14.xyzStatsObject.wt_putRatio          nan                       # WT / Put (Unspecified)
system.caches.controllers14.xyzStatsObject.wt_putmRatio          nan                       # PutM WT / PutM (Unspecified)
system.caches.controllers14.xyzStatsObject.wt_putsRatio          nan                       # PutS WT / PutS (Unspecified)
system.caches.controllers14.xyzStatsObjectlatency::samples         5478                       # Mem access latency (Unspecified)
system.caches.controllers14.xyzStatsObjectlatency::mean   154.510953                       # Mem access latency (Unspecified)
system.caches.controllers14.xyzStatsObjectlatency::stdev    46.735647                       # Mem access latency (Unspecified)
system.caches.controllers14.xyzStatsObjectlatency::underflows            0      0.00%      0.00% # Mem access latency (Unspecified)
system.caches.controllers14.xyzStatsObjectlatency::0-49999         5478    100.00%    100.00% # Mem access latency (Unspecified)
system.caches.controllers14.xyzStatsObjectlatency::50000-99999            0      0.00%    100.00% # Mem access latency (Unspecified)
system.caches.controllers14.xyzStatsObjectlatency::100000            0      0.00%    100.00% # Mem access latency (Unspecified)
system.caches.controllers14.xyzStatsObjectlatency::overflows            0      0.00%    100.00% # Mem access latency (Unspecified)
system.caches.controllers14.xyzStatsObjectlatency::min_value           74                       # Mem access latency (Unspecified)
system.caches.controllers14.xyzStatsObjectlatency::max_value          892                       # Mem access latency (Unspecified)
system.caches.controllers14.xyzStatsObjectlatency::total         5478                       # Mem access latency (Unspecified)
system.caches.controllers15.xyzStatsObject.total_put            0                       # Total number of put (PutM + PutS) (Unspecified)
system.caches.controllers15.xyzStatsObject.total_put_as_wt            0                       # Total number of put as write through (Unspecified)
system.caches.controllers15.xyzStatsObject.total_putm            0                       # Total number of PutM (Unspecified)
system.caches.controllers15.xyzStatsObject.total_putm_as_wt            0                       # Total number of PutM as write through (Unspecified)
system.caches.controllers15.xyzStatsObject.total_puts            0                       # Total number of PutS (Unspecified)
system.caches.controllers15.xyzStatsObject.total_puts_as_wt            0                       # Total number of PutS as write through (Unspecified)
system.caches.controllers15.xyzStatsObject.total_repl            0                       # Total Replacement (Unspecified)
system.caches.controllers15.xyzStatsObject.total_repl_llc            0                       # Total Replacement of LLC line (Unspecified)
system.caches.controllers15.xyzStatsObject.total_repl_owned            0                       # Total Replacement of owned line (Unspecified)
system.caches.controllers15.xyzStatsObject.total_repl_shared            0                       # Total Replacement of shared line (Unspecified)
system.caches.controllers15.xyzStatsObject.wt_putRatio          nan                       # WT / Put (Unspecified)
system.caches.controllers15.xyzStatsObject.wt_putmRatio          nan                       # PutM WT / PutM (Unspecified)
system.caches.controllers15.xyzStatsObject.wt_putsRatio          nan                       # PutS WT / PutS (Unspecified)
system.caches.controllers15.xyzStatsObjectlatency::samples         5477                       # Mem access latency (Unspecified)
system.caches.controllers15.xyzStatsObjectlatency::mean   154.493701                       # Mem access latency (Unspecified)
system.caches.controllers15.xyzStatsObjectlatency::stdev    46.987886                       # Mem access latency (Unspecified)
system.caches.controllers15.xyzStatsObjectlatency::underflows            0      0.00%      0.00% # Mem access latency (Unspecified)
system.caches.controllers15.xyzStatsObjectlatency::0-49999         5477    100.00%    100.00% # Mem access latency (Unspecified)
system.caches.controllers15.xyzStatsObjectlatency::50000-99999            0      0.00%    100.00% # Mem access latency (Unspecified)
system.caches.controllers15.xyzStatsObjectlatency::100000            0      0.00%    100.00% # Mem access latency (Unspecified)
system.caches.controllers15.xyzStatsObjectlatency::overflows            0      0.00%    100.00% # Mem access latency (Unspecified)
system.caches.controllers15.xyzStatsObjectlatency::min_value           71                       # Mem access latency (Unspecified)
system.caches.controllers15.xyzStatsObjectlatency::max_value          892                       # Mem access latency (Unspecified)
system.caches.controllers15.xyzStatsObjectlatency::total         5477                       # Mem access latency (Unspecified)
system.caches.controllers16.xyzStatsObject.total_put            0                       # Total number of put (PutM + PutS) (Unspecified)
system.caches.controllers16.xyzStatsObject.total_put_as_wt            0                       # Total number of put as write through (Unspecified)
system.caches.controllers16.xyzStatsObject.total_putm            0                       # Total number of PutM (Unspecified)
system.caches.controllers16.xyzStatsObject.total_putm_as_wt            0                       # Total number of PutM as write through (Unspecified)
system.caches.controllers16.xyzStatsObject.total_puts            0                       # Total number of PutS (Unspecified)
system.caches.controllers16.xyzStatsObject.total_puts_as_wt            0                       # Total number of PutS as write through (Unspecified)
system.caches.controllers16.xyzStatsObject.total_repl            0                       # Total Replacement (Unspecified)
system.caches.controllers16.xyzStatsObject.total_repl_llc            0                       # Total Replacement of LLC line (Unspecified)
system.caches.controllers16.xyzStatsObject.total_repl_owned            0                       # Total Replacement of owned line (Unspecified)
system.caches.controllers16.xyzStatsObject.total_repl_shared            0                       # Total Replacement of shared line (Unspecified)
system.caches.controllers16.xyzStatsObject.wt_putRatio          nan                       # WT / Put (Unspecified)
system.caches.controllers16.xyzStatsObject.wt_putmRatio          nan                       # PutM WT / PutM (Unspecified)
system.caches.controllers16.xyzStatsObject.wt_putsRatio          nan                       # PutS WT / PutS (Unspecified)
system.caches.controllers16.xyzStatsObjectlatency::samples            0                       # Mem access latency (Unspecified)
system.caches.controllers16.xyzStatsObjectlatency::mean          nan                       # Mem access latency (Unspecified)
system.caches.controllers16.xyzStatsObjectlatency::stdev          nan                       # Mem access latency (Unspecified)
system.caches.controllers16.xyzStatsObjectlatency::underflows            0                       # Mem access latency (Unspecified)
system.caches.controllers16.xyzStatsObjectlatency::0-49999            0                       # Mem access latency (Unspecified)
system.caches.controllers16.xyzStatsObjectlatency::50000-99999            0                       # Mem access latency (Unspecified)
system.caches.controllers16.xyzStatsObjectlatency::100000            0                       # Mem access latency (Unspecified)
system.caches.controllers16.xyzStatsObjectlatency::overflows            0                       # Mem access latency (Unspecified)
system.caches.controllers16.xyzStatsObjectlatency::min_value            0                       # Mem access latency (Unspecified)
system.caches.controllers16.xyzStatsObjectlatency::max_value            0                       # Mem access latency (Unspecified)
system.caches.controllers16.xyzStatsObjectlatency::total            0                       # Mem access latency (Unspecified)

---------- End Simulation Statistics   ----------
